 .Sol file Watershed HRU:15 Subbasin:1 HRU:15 Luse:URLD Soil: 390481 Slope: 2.0-8.0 11/30/2025 12:00:00 AM ArcSWAT 2012.10_8.26
 Soil Name: Houston Black
 Soil Hydrologic Group: D
 Maximum rooting depth(mm) : 2180.00
 Porosity fraction from which anions are excluded: 0.500
 Crack volume potential of soil: 0.500
 Texture 1                : GR-C- C- C
 Depth                [mm]:      320.00     1610.00     2180.00
 Bulk Density Moist [g/cc]:        1.30        1.38        1.43
 Ave. AW Incl. Rock Frag  :        0.15        0.16        0.12
 Ksat. (est.)      [mm/hr]:        0.76        0.76        0.76
 Organic Carbon [weight %]:        1.74        1.02        0.32
 Clay           [weight %]:       54.00       54.00       55.00
 Silt           [weight %]:       26.00       26.00       26.00
 Sand           [weight %]:       20.00       20.00       19.00
 Rock Fragments   [vol. %]:        3.00        1.00        3.00
 Soil Albedo (Moist)      :        0.17        0.17        0.17
 Erosion K                :        0.24        0.24        0.24
 Salinity (EC, Form 5)    :        1.00        1.00        1.50
 Soil pH                  :        7.90        7.90        7.90
 Soil CACO3               :       20.00       25.00       30.00
                              
