 .Sol file Watershed HRU:30 Subbasin:1 HRU:30 Luse:URBN Soil: 390447 Slope: 0-2.0 11/30/2025 12:00:00 AM ArcSWAT 2012.10_8.26
 Soil Name: Austin
 Soil Hydrologic Group: D
 Maximum rooting depth(mm) :  740.00
 Porosity fraction from which anions are excluded: 0.500
 Crack volume potential of soil: 0.500
 Texture 1                : SIC- SIC- SIC
 Depth                [mm]:      410.00      560.00      740.00
 Bulk Density Moist [g/cc]:        1.27        1.26        1.33
 Ave. AW Incl. Rock Frag  :        0.18        0.15        0.15
 Ksat. (est.)      [mm/hr]:        3.28        3.28        3.28
 Organic Carbon [weight %]:        1.45        0.44        0.29
 Clay           [weight %]:       45.00       45.00       45.00
 Silt           [weight %]:       48.00       48.00       48.00
 Sand           [weight %]:        7.00        7.00        7.00
 Rock Fragments   [vol. %]:        7.00        5.00        5.00
 Soil Albedo (Moist)      :        0.16        0.16        0.16
 Erosion K                :        0.20        0.28        0.28
 Salinity (EC, Form 5)    :        0.90        0.80        0.60
 Soil pH                  :        8.20        8.20        8.20
 Soil CACO3               :       40.00       55.00       70.00
                              
