 .Sol file Watershed HRU:39 Subbasin:1 HRU:39 Luse:URBN Soil: 390488 Slope: 2.0-8.0 11/30/2025 12:00:00 AM ArcSWAT 2012.10_8.26
 Soil Name: Lewisville
 Soil Hydrologic Group: C
 Maximum rooting depth(mm) : 1540.00
 Porosity fraction from which anions are excluded: 0.500
 Crack volume potential of soil: 0.500
 Texture 1                : SIC- SIC- SIC
 Depth                [mm]:      420.00     1130.00     1540.00
 Bulk Density Moist [g/cc]:        1.35        1.44        1.46
 Ave. AW Incl. Rock Frag  :        0.18        0.16        0.15
 Ksat. (est.)      [mm/hr]:        3.28        3.28        3.28
 Organic Carbon [weight %]:        1.16        0.87        0.44
 Clay           [weight %]:       46.00       41.00       42.00
 Silt           [weight %]:       46.00       47.00       47.00
 Sand           [weight %]:        8.00       12.00       11.00
 Rock Fragments   [vol. %]:        3.00        3.00       11.00
 Soil Albedo (Moist)      :        0.16        0.16        0.16
 Erosion K                :        0.20        0.32        0.32
 Salinity (EC, Form 5)    :        0.80        0.80        0.80
 Soil pH                  :        8.20        8.20        8.20
 Soil CACO3               :       20.00       30.00       30.00
                              
