 .Sol file Watershed HRU:41 Subbasin:1 HRU:41 Luse:URBN Soil: 390464 Slope: 0-2.0 11/30/2025 12:00:00 AM ArcSWAT 2012.10_8.26
 Soil Name: Loire
 Soil Hydrologic Group: B
 Maximum rooting depth(mm) : 2030.00
 Porosity fraction from which anions are excluded: 0.500
 Crack volume potential of soil: 0.500
 Texture 1                : CL- CL- L- FSL
 Depth                [mm]:      640.00      890.00     1420.00     2030.00
 Bulk Density Moist [g/cc]:        1.45        1.45        1.45        1.45
 Ave. AW Incl. Rock Frag  :        0.18        0.18        0.17        0.17
 Ksat. (est.)      [mm/hr]:       32.40       32.40       32.40       32.40
 Organic Carbon [weight %]:        0.32        0.32        0.32        0.32
 Clay           [weight %]:       28.00       28.00       20.00       17.00
 Silt           [weight %]:       37.60       37.60       17.00       20.00
 Sand           [weight %]:       34.40       34.40       63.00       63.00
 Rock Fragments   [vol. %]:        1.00        1.00        3.00        3.00
 Soil Albedo (Moist)      :        0.23        0.23        0.23        0.23
 Erosion K                :        0.24        0.32        0.28        0.28
 Salinity (EC, Form 5)    :        1.00        1.00        1.00        1.00
 Soil pH                  :        8.20        8.20        8.20        8.20
 Soil CACO3               :       13.00       15.00       15.00       15.00
                              
