 .Sol file Watershed HRU:37 Subbasin:1 HRU:37 Luse:URBN Soil: 390507 Slope: 0-2.0 11/30/2025 12:00:00 AM ArcSWAT 2012.10_8.26
 Soil Name: Tinn
 Soil Hydrologic Group: D
 Maximum rooting depth(mm) : 2030.00
 Porosity fraction from which anions are excluded: 0.500
 Crack volume potential of soil: 0.500
 Texture 1                : C- C- C
 Depth                [mm]:      460.00     1830.00     2030.00
 Bulk Density Moist [g/cc]:        1.27        1.34        1.28
 Ave. AW Incl. Rock Frag  :        0.18        0.16        0.14
 Ksat. (est.)      [mm/hr]:        0.76        0.76        0.76
 Organic Carbon [weight %]:        1.45        0.87        0.38
 Clay           [weight %]:       50.00       50.00       50.00
 Silt           [weight %]:       28.00       28.00       28.00
 Sand           [weight %]:       22.00       22.00       22.00
 Rock Fragments   [vol. %]:        2.00        2.00        4.00
 Soil Albedo (Moist)      :        0.16        0.16        0.16
 Erosion K                :        0.24        0.24        0.24
 Salinity (EC, Form 5)    :        1.00        1.00        1.00
 Soil pH                  :        7.90        7.90        7.90
 Soil CACO3               :        6.00       15.00       18.00
                              
