 .Wgn file Subbasin: 3 STATION NAME:417945 11/30/2025 12:00:00 AM ArcSWAT 2012.10_8.26
  LATITUDE =  29.53 LONGITUDE = -98.47
  ELEV [m] = 246.60
  RAIN_YRS =  31.00
 17.17 19.46 23.08 27.07 30.54 33.51 34.89 35.47 32.58 27.98 22.35 17.97
  4.85  6.71 10.48 14.45 19.32 22.48 23.68 23.71 20.71 15.66  9.97  5.48
  6.06  6.49  5.05  4.46  3.27  2.66  2.50  2.22  3.25  4.28  5.27  6.05
  5.36  5.58  5.64  5.05  3.42  2.31  1.40  1.61  3.77  5.31  6.00  6.09
  42.0  41.8  56.3  51.1 104.7 103.7  68.3  56.3  69.6  97.5  60.1  47.3
 10.50 10.05 11.24 15.17 20.28 19.85 28.05 18.92 15.66 30.09 15.58 17.47
  3.07  2.38  2.15  2.42  3.08  2.26  5.25  3.82  1.72  5.32  2.32  5.37
  0.13  0.14  0.14  0.11  0.16  0.16  0.08  0.10  0.12  0.12  0.12  0.12
  0.40  0.34  0.37  0.33  0.38  0.38  0.44  0.36  0.35  0.44  0.38  0.35
  5.45  4.81  5.76  4.27  6.45  6.03  4.07  4.21  4.79  5.34  4.76  4.97
  9.65 21.09 13.35 43.09 44.49 38.86 27.18 31.50 40.22 37.29 28.17 10.71
 11.69 14.54 17.47 18.65 22.67 25.64 26.77 24.51 20.66 16.68 12.36 10.73
  0.94  1.98  2.66  4.70 18.42 20.80 21.50 21.00 18.07 14.46  2.73  0.88
  3.45  3.58  3.96  4.01  4.04  3.97  3.79  3.47  3.23  3.33  3.39  3.33
