 .Sol file Watershed HRU:179 Subbasin:5 HRU:18 Luse:RNGB Soil: 390486 Slope: 2.0-8.0 11/30/2025 12:00:00 AM ArcSWAT 2012.10_8.26
 Soil Name: Krum
 Soil Hydrologic Group: C
 Maximum rooting depth(mm) : 2000.00
 Porosity fraction from which anions are excluded: 0.500
 Crack volume potential of soil: 0.500
 Texture 1                : C- C- C- C
 Depth                [mm]:      660.00      910.00     1270.00     2000.00
 Bulk Density Moist [g/cc]:        1.25        1.31        1.31        1.32
 Ave. AW Incl. Rock Frag  :        0.18        0.15        0.15        0.13
 Ksat. (est.)      [mm/hr]:        3.24        3.24        3.24        4.32
 Organic Carbon [weight %]:        1.16        0.73        0.44        0.32
 Clay           [weight %]:       45.00       50.00       50.00       48.00
 Silt           [weight %]:       29.00       28.00       28.00       29.00
 Sand           [weight %]:       26.00       22.00       22.00       23.00
 Rock Fragments   [vol. %]:        0.00        0.00        0.00        0.00
 Soil Albedo (Moist)      :        0.09        0.09        0.09        0.09
 Erosion K                :        0.15        0.15        0.24        0.20
 Salinity (EC, Form 5)    :        1.00        1.00        1.00        1.00
 Soil pH                  :        7.90        8.20        8.20        8.20
 Soil CACO3               :        8.00       20.00       20.00       35.00
                              
