 .Sol file Watershed HRU:175 Subbasin:5 HRU:14 Luse:URBN Soil: 390450 Slope: 8.0-9999 11/30/2025 12:00:00 AM ArcSWAT 2012.10_8.26
 Soil Name: Brackett
 Soil Hydrologic Group: D
 Maximum rooting depth(mm) :  410.00
 Porosity fraction from which anions are excluded: 0.500
 Crack volume potential of soil: 0.500
 Texture 1                : GR-CL- CL
 Depth                [mm]:      130.00      410.00
 Bulk Density Moist [g/cc]:        1.40        1.43
 Ave. AW Incl. Rock Frag  :        0.12        0.12
 Ksat. (est.)      [mm/hr]:       32.40       32.40
 Organic Carbon [weight %]:        1.16        0.73
 Clay           [weight %]:       30.00       28.50
 Silt           [weight %]:       37.00       40.00
 Sand           [weight %]:       33.00       31.50
 Rock Fragments   [vol. %]:       30.00       35.00
 Soil Albedo (Moist)      :        0.30        0.30
 Erosion K                :        0.24        0.28
 Salinity (EC, Form 5)    :        1.00        1.00
 Soil pH                  :        7.90        7.90
 Soil CACO3               :       60.00       65.00
                              
