 .Sol file Watershed HRU:157 Subbasin:4 HRU:35 Luse:URMD Soil: 390455 Slope: 2.0-8.0 11/30/2025 12:00:00 AM ArcSWAT 2012.10_8.26
 Soil Name: Crawford
 Soil Hydrologic Group: D
 Maximum rooting depth(mm) :  860.00
 Porosity fraction from which anions are excluded: 0.500
 Crack volume potential of soil: 0.500
 Texture 1                : ST-C- ST-C
 Depth                [mm]:      200.00      860.00
 Bulk Density Moist [g/cc]:        1.43        1.43
 Ave. AW Incl. Rock Frag  :        0.11        0.11
 Ksat. (est.)      [mm/hr]:        0.76        0.76
 Organic Carbon [weight %]:        1.16        1.16
 Clay           [weight %]:       50.00       50.00
 Silt           [weight %]:       28.00       28.00
 Sand           [weight %]:       22.00       22.00
 Rock Fragments   [vol. %]:        9.00        9.00
 Soil Albedo (Moist)      :        0.09        0.09
 Erosion K                :        0.17        0.24
 Salinity (EC, Form 5)    :        0.50        1.00
 Soil pH                  :        7.30        7.30
 Soil CACO3               :        0.00        0.00
                              
