 .Wgn file Subbasin: 5 STATION NAME:413038 11/30/2025 12:00:00 AM ArcSWAT 2012.10_8.26
  LATITUDE =  29.75 LONGITUDE = -98.63
  ELEV [m] = 396.80
  RAIN_YRS =  31.00
 16.53 18.81 22.40 26.38 29.67 32.67 34.15 34.83 31.87 27.24 21.59 17.12
  3.12  5.01  8.79 12.58 17.60 20.88 21.93 21.80 18.86 13.99  8.32  3.82
  5.73  6.27  4.96  4.04  3.06  2.57  2.47  2.16  3.11  4.11  4.98  5.72
  5.17  5.44  5.66  5.05  3.57  2.28  1.41  1.65  3.82  5.27  5.95  5.82
  47.9  51.3  72.0  54.7 108.2 113.2  68.5  63.0  77.6 105.8  76.4  53.4
  7.77  9.63 12.79 11.17 13.17 18.23 18.77 18.25 11.30 18.24 16.59 12.78
  2.37  2.45  3.86  2.09  2.01  4.98  4.60  5.52  2.36  2.86  3.14  4.12
  0.13  0.15  0.18  0.13  0.18  0.17  0.12  0.13  0.15  0.13  0.13  0.12
  0.56  0.49  0.47  0.44  0.54  0.58  0.55  0.53  0.57  0.58  0.51  0.54
  7.07  6.47  7.93  5.73  8.80  8.53  6.53  6.53  7.80  7.44  6.45  6.55
 10.33 21.55 13.50 41.39 45.33 38.63 44.61 31.20 39.68 36.91 28.14 10.73
 11.69 14.54 17.47 18.65 22.67 25.64 26.77 24.51 20.66 16.68 12.36 10.73
  0.94  1.98  2.66  4.70 17.78 20.21 20.31 19.95 17.79  5.34  2.73  0.88
  3.45  3.58  3.96  4.01  4.04  3.97  3.79  3.47  3.23  3.33  3.39  3.33
