 .Wgn file Subbasin: 4 STATION NAME:411777 11/30/2025 12:00:00 AM ArcSWAT 2012.10_8.26
  LATITUDE =  29.65 LONGITUDE = -98.37
  ELEV [m] = 305.10
  RAIN_YRS =  31.00
 16.89 19.11 22.72 26.72 30.17 33.22 34.75 35.40 32.30 27.59 22.03 17.56
  4.21  6.06  9.77 13.74 18.64 21.84 23.00 22.94 20.01 14.96  9.51  4.92
  5.61  6.11  4.70  3.85  2.97  2.53  2.42  2.03  3.08  4.08  4.96  5.65
  4.99  5.24  5.41  4.77  3.35  2.18  1.31  1.51  3.50  5.02  5.60  5.71
  45.2  44.5  63.7  52.9 100.1 108.8  62.2  55.3  74.0 105.8  68.7  52.7
  6.49  7.21  9.35  9.93 11.09 14.05 15.08 11.52 10.11 22.67 12.09 11.72
  2.24  1.85  3.10  2.24  2.16  2.27  5.25  4.49  2.99  6.02  2.40  3.93
  0.13  0.16  0.17  0.12  0.18  0.16  0.11  0.15  0.15  0.13  0.12  0.12
  0.56  0.49  0.53  0.53  0.58  0.63  0.62  0.51  0.60  0.62  0.58  0.55
  7.17  6.50  8.17  6.13  9.37  8.90  6.97  7.13  8.27  7.88  6.59  6.69
 11.07 24.44 13.66 42.84 46.08 37.91 36.61 31.03 40.59 37.78 30.90 11.59
 11.69 14.54 17.47 18.65 22.67 25.64 26.77 24.51 20.66 16.68 12.36 10.73
  0.94  1.98  2.66  4.70 18.42 20.80 21.50 21.00 18.07 14.46  2.73  0.88
  3.45  3.58  3.96  4.01  4.04  3.97  3.79  3.47  3.23  3.33  3.39  3.33
