 .Wgn file Subbasin: 1 STATION NAME:417947 11/30/2025 12:00:00 AM ArcSWAT 2012.10_8.26
  LATITUDE =  29.53 LONGITUDE = -98.45
  ELEV [m] = 240.20
  RAIN_YRS =  31.00
 17.19 19.47 23.09 27.03 30.36 33.35 34.77 35.35 32.32 27.71 22.22 17.83
  4.52  6.41 10.23 14.11 19.08 22.29 23.47 23.49 20.45 15.34  9.67  5.12
  6.13  6.51  5.13  4.24  3.19  2.66  2.60  2.23  3.33  4.34  5.29  6.07
  5.29  5.52  5.66  5.10  3.45  2.31  1.47  1.59  3.70  5.32  6.01  6.12
  42.4  43.2  58.1  50.3 104.6 105.3  65.5  56.5  74.7 106.9  65.2  49.6
  9.12  9.50 11.03 13.26 17.88 19.62 22.81 21.13 14.72 33.60 16.87 15.72
  3.14  2.29  2.39  2.39  2.88  2.63  4.06  4.02  2.31  6.75  3.13  5.15
  0.14  0.14  0.16  0.12  0.17  0.15  0.09  0.11  0.14  0.12  0.12  0.13
  0.44  0.39  0.41  0.38  0.46  0.49  0.47  0.33  0.48  0.51  0.45  0.42
  6.07  5.22  6.73  4.90  7.43  6.90  4.63  4.33  6.33  5.94  5.48  5.48
  9.66 21.13 13.41 42.69 44.31 38.78 27.65 31.26 40.05 37.63 28.20 10.70
 11.69 14.54 17.47 18.65 22.67 25.64 26.77 24.51 20.66 16.68 12.36 10.73
  0.94  1.98  2.66  4.70 18.42 20.80 21.50 21.00 18.07 14.46  2.73  0.88
  3.45  3.58  3.96  4.01  4.04  3.97  3.79  3.47  3.23  3.33  3.39  3.33
