 .Sol file Watershed HRU:121 Subbasin:3 HRU:34 Luse:URMD Soil: 390503 Slope: 8.0-9999 11/30/2025 12:00:00 AM ArcSWAT 2012.10_8.26
 Soil Name: Eckrant
 Soil Hydrologic Group: D
 Maximum rooting depth(mm) :  300.00
 Porosity fraction from which anions are excluded: 0.500
 Crack volume potential of soil: 0.500
 Texture 1                : CBV-C- CBV-C
 Depth                [mm]:      100.00      300.00
 Bulk Density Moist [g/cc]:        1.15        1.15
 Ave. AW Incl. Rock Frag  :        0.07        0.07
 Ksat. (est.)      [mm/hr]:        9.72        9.72
 Organic Carbon [weight %]:        3.49        2.91
 Clay           [weight %]:       42.00       45.00
 Silt           [weight %]:       39.00       37.00
 Sand           [weight %]:       19.00       18.00
 Rock Fragments   [vol. %]:       10.00       20.00
 Soil Albedo (Moist)      :        0.09        0.09
 Erosion K                :        0.15        0.20
 Salinity (EC, Form 5)    :        0.70        0.70
 Soil pH                  :        7.30        7.30
 Soil CACO3               :        2.00        2.00
                              
