# modflow.mfn file, generated by QSWATMOD2 plugin version 2.10.0. - 01/14/26 10:06:32 -
# Name file for MODFLOW-NWT, generated by Flopy version 3.3.0.
#xll:0.0; yll:0.0; rotation:0.0; units:meters; lenuni:2; start_datetime:1-1-1970
LIST	5002	modflow.list
DIS	5011	modflow.dis
BAS6	5013	modflow.bas
NWT	5032	modflow.nwt
UPW	5031	modflow.upw
RIV	5018	modflow.riv
RCH	5019	modflow.rch
OC	5014	modflow.oc
DATA(BINARY)	5051	modflow.hds
