# Name file for MODFLOW-NWT, generated by Flopy version 3.3.0.
#xll:0.0; yll:0.0; rotation:0.0; units:meters; lenuni:2; start_datetime:1-1-1970
LIST               2  newkmodflow.list
DIS               11  newkmodflow.dis
BAS6              13  newkmodflow.bas
NWT               32  newkmodflow.nwt
UPW               31  newkmodflow.upw
RIV               18  newkmodflow.riv
RCH               19  newkmodflow.rch
OC                14  newkmodflow.oc
DATA(BINARY)      51  newkmodflow.hds REPLACE
