# RIV package for MODFLOW-NWT generated by Flopy 3.3.0
       220         0
       220         0 # stress period 1
         1        25        17       334.83978       599.97955       334.04898
         1        25        18       326.44183       6754.6084       325.65103
         1        26        18       327.24796       6444.9414       326.45715
         1        26        19        322.8296       5148.2114        322.0388
         1        27        19        325.4316       11244.777        324.6408
         1        27        20       320.30408       1277.3757       319.51328
         1        28        20       324.36884        8612.609       323.57803
         1        28        21       319.71497        7257.817       318.92416
         1        29        21       325.10507        4238.565        324.3143
         1        29        22       321.95123        9754.506       321.16043
         1        30        22        320.9677        8999.693        320.1769
         1        31        22       323.93475       1006.4173       323.14395
         1        31        23       324.24796       7973.9214       323.45715
         1        32        22       319.31387       890.29224       318.52307
         1        32        23       318.29895        7606.192       317.50815
         1        33        22       322.12708         8012.63       321.33627
         1        34        22       318.70145       2748.2935       317.91064
         1        34        23        311.5007        7799.734        310.7099
         1        35        23       313.16632        3677.294       312.37552
         1        35        24       311.58978        8941.631       310.79898
         1        36        23        321.6459       5148.2114        320.8551
         1        36        24       309.03876        9309.359       308.24796
         1        36        25       303.27856        7993.276       302.48776
         1        36        26        300.3653        9038.401        299.5745
         1        36        27       299.20203       2225.7305       298.41122
         1        37        27       295.41632        9348.068       294.62552
         1        37        56       258.03268       647.48364       257.12042
         1        37        57       259.63474       5515.6016       258.72244
         1        38        27        294.6255        8902.922        293.8347
         1        38        55       258.51227       11342.955           257.6
         1        38        56       257.72656       10815.375        256.8143
         1        39        27       294.10507         8709.38        293.3143
         1        39        55       253.85411       10551.586       252.94183
         1        40        25       297.06113        5748.191       296.27032
         1        40        26       289.23697        8786.797       288.44617
         1        40        27       296.77542       599.97955       295.98462
         1        40        55       252.46832       11414.897       251.55605
         1        41        25        297.1408        4741.774          296.35
         1        41        26       285.66632        9309.359       284.87552
         1        41        27       286.25815       5670.7744       285.46735
         1        41        33       270.10617        3957.979       269.41632
         1        41        53        250.3286       11031.203       249.41632
         1        41        54       251.24187        11774.61       250.32959
         1        41        55       256.70105       2589.9346       255.78877
         1        42        27       282.80917        8941.631       282.01837
         1        42        33       266.08575        6055.235        265.3959
         1        42        34        270.4492       3327.2253       269.75934
         1        42        52       248.06172       10143.911       247.14944
         1        42        53       247.98166       1318.9482       247.06938
         1        43        27       284.57446       2457.9807       283.78366
         1        43        28        278.2809        7993.276        277.4901
         1        43        34       263.14148        8310.179       262.45166
         1        43        52       249.46283       10335.758       248.55055
         1        44        28       280.31937       4277.2734       279.52856
         1        44        29       273.79895        9019.047       273.00815
         1        44        30       276.54385        4761.128       275.75305
         1        44        34        266.9437       2996.0796       266.25385
         1        44        35       260.54495       6827.9077        259.8551
         1        44        52       244.88042        5659.487       243.96812
         1        44        53       241.77248       5971.2383        240.8602
         1        45        30       269.45712       10044.818       268.66632
         1        45        35       257.84085        7521.737       257.15103
         1        45        53        240.0582      10527.6045       239.14592
         1        46        30       267.43475        8225.525       266.64395
         1        46        35        256.5371        8704.399       255.84726
         1        46        51       239.47382        7961.651       238.56154
         1        46        52       240.15428       12613.941         239.242
         1        46        53       240.60019       1798.5658       239.68791
         1        47        30       266.27856       7509.4214       265.48776
         1        47        31        265.0796        7993.276        264.2888
         1        47        32       266.80917        9173.881       266.01837
         1        47        35       253.06026        7095.978        252.3704
         1        47        50       238.45105        9184.676       237.53877
         1        47        51        240.0633       4028.7874       239.15102
         1        48        32       261.99283       2399.9182       261.20203
         1        48        33        267.6867        6599.775        266.8959
         1        48        35       253.94801       4777.9585       253.25816
         1        48        36       253.23372       3689.9087       252.54388
         1        48        49       235.16023        2901.686       234.24796
         1        48        50       238.50208        9736.236        237.5898
         1        49        33       256.85507       10489.965        256.0643
         1        49        34       254.76442       1664.4594       253.97363
         1        49        35       252.68672        6038.504       251.89592
         1        49        36       251.16685       27079.848       250.42653
         1        49        37       249.39699        7695.194       248.70714
         1        49        38        245.9429       1198.4319       245.25307
         1        49        41       247.23141       2528.9932       246.16122
         1        49        42       264.57324        4143.892       263.50305
         1        49        49       235.86432       12901.712       234.95204
         1        50        34       256.76443       10083.527       255.97363
         1        50        35       256.96222        3464.398       256.17142
         1        50        36       253.71733        3038.606       252.92653
         1        50        37       249.23773         8709.38       248.44695
         1        50        38        247.5115        43356.85       246.66122
         1        50        39        244.6906        13376.24        243.6204
         1        50        40       244.58778       14168.455       243.51758
         1        50        41       245.44571       11517.583        244.3755
         1        50        42       244.83347       14747.382       243.76326
         1        50        43       250.12428       1767.2482       249.05408
         1        50        49       234.67044       12134.323       233.75816
         1        51        43       239.24162        13406.71       238.17143
         1        51        48       232.97147        3501.208       232.05919
         1        51        49       231.26228        8609.135          230.35
         1        52        43       235.89978       15691.945       234.82959
         1        52        48       229.09877       1828.1877       228.02856
         1        52        49       226.84616       96957.836       225.67143
         1        52        50       225.63663       12012.193        224.0949
         1        53        43       236.30756       14777.852       235.23737
         1        53        44       234.03284       2224.2952       232.96263
         1        53        47       230.10976       4997.0464       229.03957
         1        53        48       228.54932       17702.951       227.47913
         1        53        50       225.32854        20389.12       223.78682
         1        53        51       225.10876        16543.11       223.56703
         1        54        44       238.72122       12644.966       237.65102
         1        54        45       235.37428       12584.026       234.30408
         1        54        46       234.98338       15722.415        233.9132
         1        54        47       231.25693       12218.389       230.18674
         1        54        51       223.93254       12380.989       222.39082
         1        54        52       223.63623       18913.938       222.09451
         1        55        52       223.29558       27080.121       221.75385
         1        56        52       227.24612         4478.23       225.70439
         1        56        53       222.13663       23813.646        220.5949
         1        56        54       225.43765       27238.176       223.89592
         1        57        53       222.26418       2002.0322       220.72244
         1        57        54       231.87132       25868.365       230.32959
         1        58        53       222.40193       26500.586        220.8602
         1        59        53       222.99887       22970.686       221.45714
         1        60        53       222.71826       24603.924       221.17653
         1        61        53       219.90193       2423.5127        218.3602
         1        61        54       217.94786       28713.357       216.40613
         1        61        55       218.92744       23392.166       217.38571
         1        61        56       222.78969        5268.506       221.24796
         1        62        56       214.76929       28502.617       213.22755
         1        63        56       211.65704       17649.494       210.11531
         1        63        57       214.84581        8166.184       213.30408
         1        64        56       213.89172       29714.373          212.35
         1        64        57        215.7999       3108.4185       214.25816
         1        65        56       211.78459       23813.646       210.24286
         1        66        56       210.95296       24761.979       209.41122
         1        67        56       209.00908       22759.945       207.46735
         1        68        56       211.89684       21706.244        210.3551
         1        68        57       208.93765       4004.0645       207.39592
         1        69        57        207.5703       28713.357       206.02856
         1        70        57       208.89684          4583.6        207.3551
         1        70        58       208.24377       24551.238       206.70204
         1        71        58       206.05931       23128.742       204.51758
         1        72        58       206.34581       24920.033       204.80408
         1        73        54       203.51929       27501.602       201.97755
         1        73        55       200.93765       24498.553       199.39592
         1        73        56       203.48357       23128.742       201.94183
         1        73        57       205.37642       23866.332       203.83469
         1        73        58       204.67235       12170.249       203.13062
         1        74        54       203.72336       24709.293       202.18163
         1        75        54       200.87132       6954.4277       199.32959
         1        75        55       202.72847        17386.07       201.18674
         1        76        54       200.78459       20494.488       199.24286
         1        76        55       203.62642       14224.966       202.08469
         1        77        53       198.65822       31611.035       197.11649
         1        77        54        198.9769       6006.0967       197.43517
         1        78        53       202.69786       14804.502       201.15613
         1        78        54       199.34581       23708.277       197.80408
         1        78        55       199.69275       18966.621       198.15102
         1        79        55       198.02438       10431.642       196.48265
         1        79        56       199.51418       15647.463       197.97244
         1        80        56       197.46317       24024.387       195.92143
         1        81        56       195.47847       25025.404       193.93674
         1        82        56       194.48866        21653.56       192.94695
         1        83        56       194.71317       25710.309       193.17143
         1        84        53       195.61623       1001.0161        194.0745
         1        84        54       193.45805       3740.6392       191.91632
         1        84        55       192.46826        21653.56       190.92653
         1        84        56       196.65193         8640.35        195.1102
         1        85        53       192.68254       23339.482       191.14082
         1        85        54       190.72336       29556.318       189.18163
         1        85        55        195.5805       10747.752       194.03877
         1        86        53       195.96826       23813.646       194.42653
         1        86        54        192.5703       2950.3633       191.02856
         1        87        54       193.27438       31084.186       191.73265
         1        87        55       193.22847       2950.3633       191.68674
         1        88        55       191.46826       23444.852       189.92653
         1        88        56         191.805       22443.836       190.26326
         1        88        57       191.63663       39197.684        190.0949
         1        89        57       191.31755       27343.547       189.77582
         1        90        56       188.90704       14383.021       187.36531
         1        90        57       195.02438       12275.619       193.48265
         1        91        54       188.75398       19809.582       187.21225
         1        91        55         188.305        26026.42       186.76326
         1        91        56       187.61623        21548.19        186.0745
         1        92        54       189.28969       24129.758       187.74796
         1        93        54       188.39684        9430.626        186.8551
         1        93        55       185.45296        26658.64       183.91122
         1        93        56       184.03969       28344.562       182.49796
         1        93        57       184.70805       24551.238       183.16632
         1        94        57       182.72847       10326.271       181.18674
         1        94        58       194.77948       16385.053       193.23776
         1        95        56       182.68568        9799.421       181.14395
         1        95        57       185.91096       24656.607       184.36923
         1        96        56       182.34581       10273.587       180.80408
         1        96        57       185.34071       32664.736       183.79898
         1        97        54       183.39684       22338.465        181.8551
         1        97        55       181.87132       25288.828       180.32959
         1        97        57       183.36623       4056.7495        181.8245
         1        97        58        187.8101       18387.086       186.26837
         1        98        54       181.12132       24024.387       179.57959
         1        98        55       180.28459       17649.494       178.74286
         1        98        56       182.37642       31927.146       180.83469
         1        98        57       185.75398       29082.152       184.21225
         1        98        58       187.35092       5163.1357       185.80919
         1        99        54       178.67744        17386.07       177.13571
         1        99        55       177.15193        8324.239        175.6102
         1       100        54        181.0601       2844.9932       179.51837
         1       100        55         177.055       33560.383       175.51326
         1       101        55       191.96042       12855.154       190.41869
         1       101        56       181.10876       24867.348       179.56703
         1       101        57       178.69118        13434.69       177.14944
         1       102        57       179.15193       12486.359        177.6102
         1       102        58       176.48357       22759.945       174.94183
         1       103        58       180.12642       25710.309       178.58469
         1       103        59       180.13074       1896.6621         178.589
         1       104        58        176.0652       17860.234       174.52347
