 .Sol file Watershed HRU:62 Subbasin:2 HRU:8 Luse:URBN Soil: 390494 Slope: 0-2.0 11/30/2025 12:00:00 AM ArcSWAT 2012.10_8.26
 Soil Name: Patrick
 Soil Hydrologic Group: B
 Maximum rooting depth(mm) : 1520.00
 Porosity fraction from which anions are excluded: 0.500
 Crack volume potential of soil: 0.500
 Texture 1                : CL- GRV-S
 Depth                [mm]:      430.00     1520.00
 Bulk Density Moist [g/cc]:        1.35        1.60
 Ave. AW Incl. Rock Frag  :        0.15        0.05
 Ksat. (est.)      [mm/hr]:       32.40      331.20
 Organic Carbon [weight %]:        1.16        0.17
 Clay           [weight %]:       39.00        7.00
 Silt           [weight %]:       31.50        1.90
 Sand           [weight %]:       29.50       91.10
 Rock Fragments   [vol. %]:        1.00       14.00
 Soil Albedo (Moist)      :        0.16        0.16
 Erosion K                :        0.17        0.05
 Salinity (EC, Form 5)    :        1.00        1.00
 Soil pH                  :        8.20        8.20
 Soil CACO3               :        3.00       45.00
                              
