 .Sol file Watershed HRU:82 Subbasin:2 HRU:28 Luse:URHD Soil: 390452 Slope: 2.0-8.0 11/30/2025 12:00:00 AM ArcSWAT 2012.10_8.26
 Soil Name: Whitewright
 Soil Hydrologic Group: D
 Maximum rooting depth(mm) :  380.00
 Porosity fraction from which anions are excluded: 0.500
 Crack volume potential of soil: 0.500
 Texture 1                : CL- SIC
 Depth                [mm]:      150.00      380.00
 Bulk Density Moist [g/cc]:        1.35        1.40
 Ave. AW Incl. Rock Frag  :        0.18        0.17
 Ksat. (est.)      [mm/hr]:       32.40       32.40
 Organic Carbon [weight %]:        0.44        0.17
 Clay           [weight %]:       36.50       41.00
 Silt           [weight %]:       32.80       51.10
 Sand           [weight %]:       30.70        7.90
 Rock Fragments   [vol. %]:        3.00        3.00
 Soil Albedo (Moist)      :        0.30        0.30
 Erosion K                :        0.24        0.32
 Salinity (EC, Form 5)    :        1.00        1.00
 Soil pH                  :        8.20        8.20
 Soil CACO3               :       55.00       55.00
                              
