 .Sol file Watershed HRU:14 Subbasin:1 HRU:14 Luse:URMD Soil: 390478 Slope: 0-2.0 11/30/2025 12:00:00 AM ArcSWAT 2012.10_8.26
 Soil Name: Branyon
 Soil Hydrologic Group: D
 Maximum rooting depth(mm) : 2030.00
 Porosity fraction from which anions are excluded: 0.500
 Crack volume potential of soil: 0.500
 Texture 1                : C- C- C
 Depth                [mm]:      310.00     1830.00     2030.00
 Bulk Density Moist [g/cc]:        1.30        1.32        1.36
 Ave. AW Incl. Rock Frag  :        0.17        0.17        0.17
 Ksat. (est.)      [mm/hr]:        3.28        0.76        0.76
 Organic Carbon [weight %]:        1.16        0.73        0.70
 Clay           [weight %]:       47.00       53.00       53.00
 Silt           [weight %]:       35.00       33.00       37.00
 Sand           [weight %]:       18.00       14.00       10.00
 Rock Fragments   [vol. %]:        3.00        3.00        3.00
 Soil Albedo (Moist)      :        0.16        0.16        0.16
 Erosion K                :        0.32        0.32        0.32
 Salinity (EC, Form 5)    :        1.00        2.00        2.00
 Soil pH                  :        7.80        7.80        7.90
 Soil CACO3               :        3.00        9.00       21.00
                              
