# UPW package for MODFLOW-NWT generated by Flopy 3.3.0
         0    -1E+30         0         0 
         1
         0
   1.000000E+00
         0
         0
INTERNAL               1  (73E15.6) -1 #hk layer 1                    
  -9.999000E+03  -9.999000E+03  -9.999000E+03   1.369347E+00   1.369347E+00   1.369347E+00   1.369347E+00   1.369347E+00  -9.999000E+03  -9.999000E+03  -9.999000E+03  -9.999000E+03  -9.999000E+03  -9.999000E+03  -9.999000E+03  -9.999000E+03  -9.999000E+03  -9.999000E+03  -9.999000E+03  -9.999000E+03  -9.999000E+03  -9.999000E+03  -9.999000E+03  -9.999000E+03  -9.999000E+03  -9.999000E+03  -9.999000E+03  -9.999000E+03  -9.999000E+03  -9.999000E+03  -9.999000E+03  -9.999000E+03  -9.999000E+03  -9.999000E+03  -9.999000E+03  -9.999000E+03  -9.999000E+03  -9.999000E+03  -9.999000E+03  -9.999000E+03  -9.999000E+03  -9.999000E+03  -9.999000E+03  -9.999000E+03  -9.999000E+03  -9.999000E+03  -9.999000E+03  -9.999000E+03  -9.999000E+03  -9.999000E+03  -9.999000E+03  -9.999000E+03  -9.999000E+03  -9.999000E+03  -9.999000E+03  -9.999000E+03  -9.999000E+03  -9.999000E+03  -9.999000E+03  -9.999000E+03  -9.999000E+03  -9.999000E+03  -9.999000E+03  -9.999000E+03  -9.999000E+03  -9.999000E+03  -9.999000E+03  -9.999000E+03  -9.999000E+03  -9.999000E+03  -9.999000E+03  -9.999000E+03  -9.999000E+03
  -9.999000E+03   1.369347E+00   1.369347E+00   1.369347E+00   1.369347E+00   1.369347E+00   1.369347E+00   1.369347E+00   1.369347E+00  -9.999000E+03  -9.999000E+03  -9.999000E+03  -9.999000E+03  -9.999000E+03  -9.999000E+03  -9.999000E+03  -9.999000E+03  -9.999000E+03  -9.999000E+03  -9.999000E+03  -9.999000E+03  -9.999000E+03  -9.999000E+03  -9.999000E+03  -9.999000E+03  -9.999000E+03  -9.999000E+03  -9.999000E+03  -9.999000E+03  -9.999000E+03  -9.999000E+03  -9.999000E+03  -9.999000E+03  -9.999000E+03  -9.999000E+03  -9.999000E+03  -9.999000E+03  -9.999000E+03  -9.999000E+03  -9.999000E+03  -9.999000E+03  -9.999000E+03  -9.999000E+03  -9.999000E+03  -9.999000E+03  -9.999000E+03  -9.999000E+03  -9.999000E+03  -9.999000E+03  -9.999000E+03  -9.999000E+03  -9.999000E+03  -9.999000E+03  -9.999000E+03  -9.999000E+03  -9.999000E+03  -9.999000E+03  -9.999000E+03  -9.999000E+03  -9.999000E+03  -9.999000E+03  -9.999000E+03  -9.999000E+03  -9.999000E+03  -9.999000E+03  -9.999000E+03  -9.999000E+03  -9.999000E+03  -9.999000E+03  -9.999000E+03  -9.999000E+03  -9.999000E+03  -9.999000E+03
   1.369347E+00   1.369347E+00   1.369347E+00   1.369347E+00   1.369347E+00   1.369347E+00   1.369347E+00   1.369347E+00   1.369347E+00   1.369347E+00  -9.999000E+03  -9.999000E+03  -9.999000E+03  -9.999000E+03  -9.999000E+03  -9.999000E+03  -9.999000E+03  -9.999000E+03  -9.999000E+03  -9.999000E+03  -9.999000E+03  -9.999000E+03  -9.999000E+03  -9.999000E+03  -9.999000E+03  -9.999000E+03  -9.999000E+03  -9.999000E+03  -9.999000E+03  -9.999000E+03  -9.999000E+03  -9.999000E+03  -9.999000E+03  -9.999000E+03  -9.999000E+03  -9.999000E+03  -9.999000E+03  -9.999000E+03  -9.999000E+03  -9.999000E+03  -9.999000E+03  -9.999000E+03  -9.999000E+03  -9.999000E+03  -9.999000E+03  -9.999000E+03  -9.999000E+03  -9.999000E+03  -9.999000E+03  -9.999000E+03  -9.999000E+03  -9.999000E+03  -9.999000E+03  -9.999000E+03  -9.999000E+03  -9.999000E+03  -9.999000E+03  -9.999000E+03  -9.999000E+03  -9.999000E+03  -9.999000E+03  -9.999000E+03  -9.999000E+03  -9.999000E+03  -9.999000E+03  -9.999000E+03  -9.999000E+03  -9.999000E+03  -9.999000E+03  -9.999000E+03  -9.999000E+03  -9.999000E+03  -9.999000E+03
   1.369347E+00   1.369347E+00   1.369347E+00   1.369347E+00   1.369347E+00   1.369347E+00   1.369347E+00   1.369347E+00   1.369347E+00   1.369347E+00   1.369347E+00   1.369347E+00   1.369347E+00  -9.999000E+03  -9.999000E+03  -9.999000E+03  -9.999000E+03  -9.999000E+03  -9.999000E+03  -9.999000E+03  -9.999000E+03  -9.999000E+03  -9.999000E+03  -9.999000E+03  -9.999000E+03  -9.999000E+03  -9.999000E+03  -9.999000E+03  -9.999000E+03  -9.999000E+03  -9.999000E+03  -9.999000E+03  -9.999000E+03  -9.999000E+03  -9.999000E+03  -9.999000E+03  -9.999000E+03  -9.999000E+03  -9.999000E+03  -9.999000E+03  -9.999000E+03  -9.999000E+03  -9.999000E+03  -9.999000E+03  -9.999000E+03  -9.999000E+03  -9.999000E+03  -9.999000E+03  -9.999000E+03  -9.999000E+03  -9.999000E+03  -9.999000E+03  -9.999000E+03  -9.999000E+03  -9.999000E+03  -9.999000E+03  -9.999000E+03  -9.999000E+03  -9.999000E+03  -9.999000E+03  -9.999000E+03  -9.999000E+03  -9.999000E+03  -9.999000E+03  -9.999000E+03  -9.999000E+03  -9.999000E+03  -9.999000E+03  -9.999000E+03  -9.999000E+03  -9.999000E+03  -9.999000E+03  -9.999000E+03
   1.369347E+00   1.369347E+00   1.369347E+00   1.369347E+00   1.369347E+00   1.369347E+00   1.369347E+00   1.369347E+00   1.369347E+00   1.369347E+00   1.369347E+00   1.369347E+00   1.369347E+00   1.369347E+00   1.369347E+00   1.369347E+00   1.369347E+00   1.369347E+00   1.369347E+00   1.369347E+00  -9.999000E+03  -9.999000E+03  -9.999000E+03  -9.999000E+03  -9.999000E+03  -9.999000E+03  -9.999000E+03  -9.999000E+03  -9.999000E+03  -9.999000E+03  -9.999000E+03  -9.999000E+03  -9.999000E+03  -9.999000E+03  -9.999000E+03  -9.999000E+03  -9.999000E+03  -9.999000E+03  -9.999000E+03  -9.999000E+03  -9.999000E+03  -9.999000E+03  -9.999000E+03  -9.999000E+03  -9.999000E+03  -9.999000E+03  -9.999000E+03  -9.999000E+03  -9.999000E+03  -9.999000E+03  -9.999000E+03  -9.999000E+03  -9.999000E+03  -9.999000E+03  -9.999000E+03  -9.999000E+03  -9.999000E+03  -9.999000E+03  -9.999000E+03  -9.999000E+03  -9.999000E+03  -9.999000E+03  -9.999000E+03  -9.999000E+03  -9.999000E+03  -9.999000E+03  -9.999000E+03  -9.999000E+03  -9.999000E+03  -9.999000E+03  -9.999000E+03  -9.999000E+03  -9.999000E+03
  -9.999000E+03  -9.999000E+03   1.369347E+00   1.369347E+00   1.369347E+00   1.369347E+00   1.369347E+00   1.369347E+00   1.369347E+00   1.369347E+00   1.369347E+00   1.369347E+00   1.369347E+00   1.369347E+00   1.369347E+00   1.369347E+00   1.369347E+00   1.369347E+00   1.369347E+00   1.369347E+00   1.369347E+00  -9.999000E+03  -9.999000E+03  -9.999000E+03  -9.999000E+03  -9.999000E+03  -9.999000E+03  -9.999000E+03  -9.999000E+03  -9.999000E+03  -9.999000E+03  -9.999000E+03  -9.999000E+03  -9.999000E+03  -9.999000E+03  -9.999000E+03  -9.999000E+03  -9.999000E+03  -9.999000E+03  -9.999000E+03  -9.999000E+03  -9.999000E+03  -9.999000E+03  -9.999000E+03  -9.999000E+03  -9.999000E+03  -9.999000E+03  -9.999000E+03  -9.999000E+03  -9.999000E+03  -9.999000E+03  -9.999000E+03  -9.999000E+03  -9.999000E+03  -9.999000E+03  -9.999000E+03  -9.999000E+03  -9.999000E+03  -9.999000E+03  -9.999000E+03  -9.999000E+03  -9.999000E+03  -9.999000E+03  -9.999000E+03  -9.999000E+03  -9.999000E+03  -9.999000E+03  -9.999000E+03  -9.999000E+03  -9.999000E+03  -9.999000E+03  -9.999000E+03  -9.999000E+03
  -9.999000E+03  -9.999000E+03   1.369347E+00   1.369347E+00   1.369347E+00   1.369347E+00   1.369347E+00   1.369347E+00   1.369347E+00   1.369347E+00   1.369347E+00   1.369347E+00   1.369347E+00   1.369347E+00   1.369347E+00   1.369347E+00   1.369347E+00   1.369347E+00   1.369347E+00   1.369347E+00   1.369347E+00   1.369347E+00  -9.999000E+03  -9.999000E+03  -9.999000E+03  -9.999000E+03  -9.999000E+03  -9.999000E+03  -9.999000E+03  -9.999000E+03  -9.999000E+03  -9.999000E+03  -9.999000E+03  -9.999000E+03  -9.999000E+03  -9.999000E+03  -9.999000E+03  -9.999000E+03  -9.999000E+03   1.369347E+00   1.369347E+00  -9.999000E+03  -9.999000E+03   1.369347E+00   1.369347E+00   1.369347E+00  -9.999000E+03  -9.999000E+03  -9.999000E+03  -9.999000E+03   1.369347E+00   1.369347E+00  -9.999000E+03  -9.999000E+03  -9.999000E+03  -9.999000E+03  -9.999000E+03  -9.999000E+03  -9.999000E+03  -9.999000E+03  -9.999000E+03  -9.999000E+03  -9.999000E+03  -9.999000E+03  -9.999000E+03  -9.999000E+03  -9.999000E+03  -9.999000E+03  -9.999000E+03  -9.999000E+03  -9.999000E+03  -9.999000E+03  -9.999000E+03
  -9.999000E+03  -9.999000E+03   1.369347E+00   1.369347E+00   1.369347E+00   1.369347E+00   1.369347E+00   1.369347E+00   1.369347E+00   1.369347E+00   1.369347E+00   1.369347E+00   1.369347E+00   1.369347E+00   1.369347E+00   1.369347E+00   1.369347E+00   1.369347E+00   1.369347E+00   1.369347E+00   1.369347E+00   1.369347E+00  -9.999000E+03  -9.999000E+03  -9.999000E+03  -9.999000E+03  -9.999000E+03  -9.999000E+03  -9.999000E+03  -9.999000E+03  -9.999000E+03  -9.999000E+03  -9.999000E+03  -9.999000E+03  -9.999000E+03  -9.999000E+03   1.369347E+00   1.369347E+00   1.369347E+00   1.369347E+00   1.369347E+00   1.369347E+00   1.369347E+00   1.369347E+00   1.369347E+00   1.369347E+00   1.369347E+00  -9.999000E+03  -9.999000E+03   1.369347E+00   1.369347E+00   1.369347E+00  -9.999000E+03  -9.999000E+03  -9.999000E+03  -9.999000E+03  -9.999000E+03  -9.999000E+03  -9.999000E+03  -9.999000E+03  -9.999000E+03  -9.999000E+03  -9.999000E+03  -9.999000E+03  -9.999000E+03  -9.999000E+03  -9.999000E+03  -9.999000E+03  -9.999000E+03  -9.999000E+03  -9.999000E+03  -9.999000E+03  -9.999000E+03
  -9.999000E+03  -9.999000E+03  -9.999000E+03   1.369347E+00   1.369347E+00   1.369347E+00   1.369347E+00   1.369347E+00   1.369347E+00   1.369347E+00   1.369347E+00   1.369347E+00   1.369347E+00   1.369347E+00   1.369347E+00   1.369347E+00   1.369347E+00   1.369347E+00   1.369347E+00   1.369347E+00   1.369347E+00   1.369347E+00  -9.999000E+03  -9.999000E+03  -9.999000E+03  -9.999000E+03  -9.999000E+03   1.369347E+00   1.369347E+00  -9.999000E+03   1.369347E+00   1.369347E+00   1.369347E+00   1.369347E+00   1.369347E+00   1.369347E+00   1.369347E+00   1.369347E+00   1.369347E+00   1.369347E+00   1.369347E+00   1.369347E+00   1.369347E+00   1.369347E+00   1.369347E+00   1.369347E+00   1.369347E+00  -9.999000E+03   1.369347E+00   1.369347E+00   1.369347E+00   1.369347E+00   1.369347E+00  -9.999000E+03  -9.999000E+03  -9.999000E+03  -9.999000E+03  -9.999000E+03  -9.999000E+03  -9.999000E+03  -9.999000E+03  -9.999000E+03  -9.999000E+03  -9.999000E+03  -9.999000E+03  -9.999000E+03  -9.999000E+03  -9.999000E+03  -9.999000E+03  -9.999000E+03  -9.999000E+03  -9.999000E+03  -9.999000E+03
  -9.999000E+03  -9.999000E+03  -9.999000E+03   1.369347E+00   1.369347E+00   1.369347E+00   1.369347E+00   1.369347E+00   1.369347E+00   1.369347E+00   1.369347E+00   1.369347E+00   1.369347E+00   1.369347E+00   1.369347E+00   1.369347E+00   1.369347E+00   1.369347E+00   1.369347E+00   1.369347E+00   1.369347E+00   1.369347E+00   1.369347E+00   1.369347E+00   1.369347E+00   1.369347E+00   1.369347E+00   1.369347E+00   1.369347E+00   1.369347E+00   1.369347E+00   1.369347E+00   1.369347E+00   1.369347E+00   1.369347E+00   1.369347E+00   1.369347E+00   1.369347E+00   1.369347E+00   1.369347E+00   1.369347E+00   1.369347E+00   1.369347E+00   1.369347E+00   1.369347E+00   1.369347E+00   1.369347E+00   1.369347E+00   1.369347E+00   1.369347E+00   1.369347E+00   1.369347E+00   1.369347E+00  -9.999000E+03  -9.999000E+03  -9.999000E+03  -9.999000E+03  -9.999000E+03  -9.999000E+03  -9.999000E+03  -9.999000E+03  -9.999000E+03  -9.999000E+03  -9.999000E+03  -9.999000E+03  -9.999000E+03  -9.999000E+03  -9.999000E+03  -9.999000E+03  -9.999000E+03  -9.999000E+03  -9.999000E+03  -9.999000E+03
  -9.999000E+03  -9.999000E+03  -9.999000E+03  -9.999000E+03   1.369347E+00   1.369347E+00   1.369347E+00   1.369347E+00   1.369347E+00   1.369347E+00   1.369347E+00   1.369347E+00   1.369347E+00   1.369347E+00   1.369347E+00   1.369347E+00   1.369347E+00   1.369347E+00   1.369347E+00   1.369347E+00   1.369347E+00   1.369347E+00   1.369347E+00   1.369347E+00   1.369347E+00   1.369347E+00   1.369347E+00   1.369347E+00   1.369347E+00   1.369347E+00   1.369347E+00   1.369347E+00   1.369347E+00   1.369347E+00   1.369347E+00   1.369347E+00   1.369347E+00   1.369347E+00   1.369347E+00   1.369347E+00   1.369347E+00   1.369347E+00   1.369347E+00   1.369347E+00   1.369347E+00   1.369347E+00   1.369347E+00   1.369347E+00   1.369347E+00   1.369347E+00   1.369347E+00   1.369347E+00   1.369347E+00   1.369347E+00  -9.999000E+03  -9.999000E+03  -9.999000E+03  -9.999000E+03  -9.999000E+03  -9.999000E+03  -9.999000E+03  -9.999000E+03  -9.999000E+03  -9.999000E+03  -9.999000E+03  -9.999000E+03  -9.999000E+03  -9.999000E+03  -9.999000E+03  -9.999000E+03  -9.999000E+03  -9.999000E+03  -9.999000E+03
  -9.999000E+03  -9.999000E+03  -9.999000E+03  -9.999000E+03   1.369347E+00   1.369347E+00   1.369347E+00   1.369347E+00   1.369347E+00   1.369347E+00   1.369347E+00   1.369347E+00   1.369347E+00   1.369347E+00   1.369347E+00   1.369347E+00   1.369347E+00   1.369347E+00   1.369347E+00   1.369347E+00   1.369347E+00   1.369347E+00   1.369347E+00   1.369347E+00   1.369347E+00   1.369347E+00   1.369347E+00   1.369347E+00   1.369347E+00   1.369347E+00   1.369347E+00   1.369347E+00   1.369347E+00   1.369347E+00   1.369347E+00   1.369347E+00   1.369347E+00   1.369347E+00   1.369347E+00   1.369347E+00   1.369347E+00   1.369347E+00   1.369347E+00   1.369347E+00   1.369347E+00   1.369347E+00   1.369347E+00   1.369347E+00   1.369347E+00   1.369347E+00   1.369347E+00   1.369347E+00   1.369347E+00   1.369347E+00  -9.999000E+03  -9.999000E+03  -9.999000E+03  -9.999000E+03  -9.999000E+03  -9.999000E+03  -9.999000E+03  -9.999000E+03  -9.999000E+03  -9.999000E+03  -9.999000E+03  -9.999000E+03  -9.999000E+03  -9.999000E+03  -9.999000E+03  -9.999000E+03  -9.999000E+03  -9.999000E+03  -9.999000E+03
  -9.999000E+03  -9.999000E+03  -9.999000E+03  -9.999000E+03  -9.999000E+03  -9.999000E+03  -9.999000E+03   1.369347E+00   1.369347E+00   1.369347E+00   1.369347E+00   1.369347E+00   1.369347E+00   1.369347E+00   1.369347E+00   1.369347E+00   1.369347E+00   1.369347E+00   1.369347E+00   1.369347E+00   1.369347E+00   1.369347E+00   1.369347E+00   1.369347E+00   1.369347E+00   1.369347E+00   1.369347E+00   1.369347E+00   1.369347E+00   1.369347E+00   1.369347E+00   1.369347E+00   1.369347E+00   1.369347E+00   1.369347E+00   1.369347E+00   1.369347E+00   1.369347E+00   1.369347E+00   1.369347E+00   1.369347E+00   1.369347E+00   1.369347E+00   1.369347E+00   1.369347E+00   1.369347E+00   1.369347E+00   1.369347E+00   1.369347E+00   1.369347E+00   1.369347E+00   1.369347E+00   1.369347E+00   1.369347E+00   1.369347E+00   1.369347E+00  -9.999000E+03  -9.999000E+03  -9.999000E+03  -9.999000E+03  -9.999000E+03  -9.999000E+03  -9.999000E+03  -9.999000E+03  -9.999000E+03  -9.999000E+03  -9.999000E+03  -9.999000E+03  -9.999000E+03  -9.999000E+03  -9.999000E+03  -9.999000E+03  -9.999000E+03
  -9.999000E+03  -9.999000E+03  -9.999000E+03  -9.999000E+03  -9.999000E+03  -9.999000E+03  -9.999000E+03   1.369347E+00   1.369347E+00   1.369347E+00   1.369347E+00   1.369347E+00   1.369347E+00   1.369347E+00   1.369347E+00   1.369347E+00   1.369347E+00   1.369347E+00   1.369347E+00   1.369347E+00   1.369347E+00   1.369347E+00   1.369347E+00   1.369347E+00   1.369347E+00   1.369347E+00   1.369347E+00   1.369347E+00   1.369347E+00   1.369347E+00   1.369347E+00   1.369347E+00   1.369347E+00   1.369347E+00   1.369347E+00   1.369347E+00   1.369347E+00   1.369347E+00   1.369347E+00   1.369347E+00   1.369347E+00   1.369347E+00   1.369347E+00   1.369347E+00   1.369347E+00   1.369347E+00   1.369347E+00   1.369347E+00   1.369347E+00   1.369347E+00   1.369347E+00   1.369347E+00   1.369347E+00   1.369347E+00   1.369347E+00   1.369347E+00   1.369347E+00  -9.999000E+03  -9.999000E+03  -9.999000E+03  -9.999000E+03  -9.999000E+03  -9.999000E+03  -9.999000E+03  -9.999000E+03  -9.999000E+03  -9.999000E+03  -9.999000E+03  -9.999000E+03  -9.999000E+03  -9.999000E+03  -9.999000E+03  -9.999000E+03
  -9.999000E+03  -9.999000E+03  -9.999000E+03  -9.999000E+03  -9.999000E+03  -9.999000E+03  -9.999000E+03   1.369347E+00   1.369347E+00   1.369347E+00   1.369347E+00   1.369347E+00   1.369347E+00   1.369347E+00   1.369347E+00   1.369347E+00   1.369347E+00   1.369347E+00   1.369347E+00   1.369347E+00   1.369347E+00   1.369347E+00   1.369347E+00   1.369347E+00   1.369347E+00   1.369347E+00   1.369347E+00   1.369347E+00   1.369347E+00   1.369347E+00   1.369347E+00   1.369347E+00   1.369347E+00   1.369347E+00   1.369347E+00   1.369347E+00   1.369347E+00   1.369347E+00   1.369347E+00   1.369347E+00   1.369347E+00   1.369347E+00   1.369347E+00   1.369347E+00   1.369347E+00   1.369347E+00   1.369347E+00   1.369347E+00   1.369347E+00   1.369347E+00   1.369347E+00   1.369347E+00   1.369347E+00   1.369347E+00   1.369347E+00   1.369347E+00   1.369347E+00   1.369347E+00  -9.999000E+03  -9.999000E+03  -9.999000E+03  -9.999000E+03  -9.999000E+03  -9.999000E+03  -9.999000E+03  -9.999000E+03  -9.999000E+03  -9.999000E+03  -9.999000E+03  -9.999000E+03  -9.999000E+03  -9.999000E+03  -9.999000E+03
  -9.999000E+03  -9.999000E+03  -9.999000E+03  -9.999000E+03  -9.999000E+03  -9.999000E+03   1.369347E+00   1.369347E+00   1.369347E+00   1.369347E+00   1.369347E+00   1.369347E+00   1.369347E+00   1.369347E+00   1.369347E+00   1.369347E+00   1.369347E+00   1.369347E+00   1.369347E+00   1.369347E+00   1.369347E+00   1.369347E+00   1.369347E+00   1.369347E+00   1.369347E+00   1.369347E+00   1.369347E+00   1.369347E+00   1.369347E+00   1.369347E+00   1.369347E+00   1.369347E+00   1.369347E+00   1.369347E+00   1.369347E+00   1.369347E+00   1.369347E+00   1.369347E+00   1.369347E+00   1.369347E+00   1.369347E+00   1.369347E+00   1.369347E+00   1.369347E+00   1.369347E+00   1.369347E+00   1.369347E+00   1.369347E+00   1.369347E+00   1.369347E+00   1.369347E+00   1.369347E+00   1.369347E+00   1.369347E+00   1.369347E+00   1.369347E+00   1.369347E+00   1.369347E+00   1.369347E+00  -9.999000E+03  -9.999000E+03  -9.999000E+03  -9.999000E+03  -9.999000E+03  -9.999000E+03  -9.999000E+03  -9.999000E+03  -9.999000E+03  -9.999000E+03  -9.999000E+03  -9.999000E+03  -9.999000E+03  -9.999000E+03
  -9.999000E+03  -9.999000E+03  -9.999000E+03  -9.999000E+03  -9.999000E+03  -9.999000E+03   1.369347E+00   1.369347E+00   1.369347E+00   1.369347E+00   1.369347E+00   1.369347E+00   1.369347E+00   1.369347E+00   1.369347E+00   1.369347E+00   1.369347E+00   1.369347E+00   1.369347E+00   1.369347E+00   1.369347E+00   1.369347E+00   1.369347E+00   1.369347E+00   1.369347E+00   1.369347E+00   1.369347E+00   1.369347E+00   1.369347E+00   1.369347E+00   1.369347E+00   1.369347E+00   1.369347E+00   1.369347E+00   1.369347E+00   1.369347E+00   1.369347E+00   1.369347E+00   1.369347E+00   1.369347E+00   1.369347E+00   1.369347E+00   1.369347E+00   1.369347E+00   1.369347E+00   1.369347E+00   1.369347E+00   1.369347E+00   1.369347E+00   1.369347E+00   1.369347E+00   1.369347E+00   1.369347E+00   1.369347E+00   1.369347E+00   1.369347E+00   1.369347E+00   1.369347E+00   1.369347E+00   1.369347E+00  -9.999000E+03  -9.999000E+03  -9.999000E+03  -9.999000E+03  -9.999000E+03  -9.999000E+03  -9.999000E+03  -9.999000E+03  -9.999000E+03  -9.999000E+03  -9.999000E+03  -9.999000E+03  -9.999000E+03
  -9.999000E+03  -9.999000E+03  -9.999000E+03  -9.999000E+03  -9.999000E+03  -9.999000E+03  -9.999000E+03  -9.999000E+03   1.369347E+00   1.369347E+00   1.369347E+00   1.369347E+00   1.369347E+00   1.369347E+00   1.369347E+00   1.369347E+00   1.369347E+00   1.369347E+00   1.369347E+00   1.369347E+00   1.369347E+00   1.369347E+00   1.369347E+00   1.369347E+00   1.369347E+00   1.369347E+00   1.369347E+00   1.369347E+00   1.369347E+00   1.369347E+00   1.369347E+00   1.369347E+00   1.369347E+00   1.369347E+00   1.369347E+00   1.369347E+00   1.369347E+00   1.369347E+00   1.369347E+00   1.369347E+00   1.369347E+00   1.369347E+00   1.369347E+00   1.369347E+00   1.369347E+00   1.369347E+00   1.369347E+00   1.369347E+00   1.369347E+00   1.369347E+00   1.369347E+00   1.369347E+00   1.369347E+00   1.369347E+00   1.369347E+00   1.369347E+00   1.369347E+00   1.369347E+00   1.369347E+00   1.369347E+00   1.369347E+00   1.369347E+00  -9.999000E+03  -9.999000E+03  -9.999000E+03  -9.999000E+03  -9.999000E+03  -9.999000E+03  -9.999000E+03  -9.999000E+03  -9.999000E+03  -9.999000E+03  -9.999000E+03
  -9.999000E+03  -9.999000E+03  -9.999000E+03  -9.999000E+03  -9.999000E+03  -9.999000E+03  -9.999000E+03  -9.999000E+03   1.369347E+00   1.369347E+00   1.369347E+00   1.369347E+00   1.369347E+00   1.369347E+00   1.369347E+00   1.369347E+00   1.369347E+00   1.369347E+00   1.369347E+00   1.369347E+00   1.369347E+00   1.369347E+00   1.369347E+00   1.369347E+00   1.369347E+00   1.369347E+00   1.369347E+00   1.369347E+00   1.369347E+00   1.369347E+00   1.369347E+00   1.369347E+00   1.369347E+00   1.369347E+00   1.369347E+00   1.369347E+00   1.369347E+00   1.369347E+00   1.369347E+00   1.369347E+00   1.369347E+00   1.369347E+00   1.369347E+00   1.369347E+00   1.369347E+00   1.369347E+00   1.369347E+00   1.369347E+00   1.369347E+00   1.369347E+00   1.369347E+00   1.369347E+00   1.369347E+00   1.369347E+00   1.369347E+00   1.369347E+00   1.369347E+00   1.369347E+00   1.369347E+00   1.369347E+00   1.369347E+00   1.369347E+00  -9.999000E+03  -9.999000E+03  -9.999000E+03  -9.999000E+03  -9.999000E+03  -9.999000E+03  -9.999000E+03  -9.999000E+03  -9.999000E+03  -9.999000E+03  -9.999000E+03
  -9.999000E+03  -9.999000E+03  -9.999000E+03  -9.999000E+03  -9.999000E+03  -9.999000E+03  -9.999000E+03  -9.999000E+03   1.369347E+00   1.369347E+00   1.369347E+00   1.369347E+00   1.369347E+00   1.369347E+00   1.369347E+00   1.369347E+00   1.369347E+00   1.369347E+00   1.369347E+00   1.369347E+00   1.369347E+00   1.369347E+00   1.369347E+00   1.369347E+00   1.369347E+00   1.369347E+00   1.369347E+00   1.369347E+00   1.369347E+00   1.369347E+00   1.369347E+00   1.369347E+00   1.369347E+00   1.369347E+00   1.369347E+00   1.369347E+00   1.369347E+00   1.369347E+00   1.369347E+00   1.369347E+00   1.369347E+00   1.369347E+00   1.369347E+00   1.369347E+00   1.369347E+00   1.369347E+00   1.369347E+00   1.369347E+00   1.369347E+00   1.369347E+00   1.369347E+00   1.369347E+00   1.369347E+00   1.369347E+00   1.369347E+00   1.369347E+00   1.369347E+00   1.369347E+00   1.369347E+00   1.369347E+00   1.369347E+00   1.369347E+00  -9.999000E+03  -9.999000E+03  -9.999000E+03   1.369347E+00   1.369347E+00  -9.999000E+03  -9.999000E+03  -9.999000E+03  -9.999000E+03  -9.999000E+03  -9.999000E+03
  -9.999000E+03  -9.999000E+03  -9.999000E+03  -9.999000E+03  -9.999000E+03  -9.999000E+03  -9.999000E+03  -9.999000E+03   1.369347E+00   1.369347E+00   1.369347E+00   1.369347E+00   1.369347E+00   1.369347E+00   1.369347E+00   1.369347E+00   1.369347E+00   1.369347E+00   1.369347E+00   1.369347E+00   1.369347E+00   1.369347E+00   1.369347E+00   1.369347E+00   1.369347E+00   1.369347E+00   1.369347E+00   1.369347E+00   1.369347E+00   1.369347E+00   1.369347E+00   1.369347E+00   1.369347E+00   1.369347E+00   1.369347E+00   1.369347E+00   1.369347E+00   1.369347E+00   1.369347E+00   1.369347E+00   1.369347E+00   1.369347E+00   1.369347E+00   1.369347E+00   1.369347E+00   1.369347E+00   1.369347E+00   1.369347E+00   1.369347E+00   1.369347E+00   1.369347E+00   1.369347E+00   1.369347E+00   1.369347E+00   1.369347E+00   1.369347E+00   1.369347E+00   1.369347E+00   1.369347E+00   1.369347E+00   1.369347E+00   1.369347E+00   1.369347E+00   1.369347E+00   1.369347E+00   1.369347E+00   1.369347E+00   1.369347E+00  -9.999000E+03  -9.999000E+03  -9.999000E+03  -9.999000E+03  -9.999000E+03
  -9.999000E+03  -9.999000E+03  -9.999000E+03  -9.999000E+03  -9.999000E+03  -9.999000E+03  -9.999000E+03  -9.999000E+03  -9.999000E+03   1.369347E+00   1.369347E+00   1.369347E+00   1.369347E+00   1.369347E+00   1.369347E+00   1.369347E+00   1.369347E+00   1.369347E+00   1.369347E+00   1.369347E+00   1.369347E+00   1.369347E+00   1.369347E+00   1.369347E+00   1.369347E+00   1.369347E+00   1.369347E+00   1.369347E+00   1.369347E+00   1.369347E+00   1.369347E+00   1.369347E+00   1.369347E+00   1.369347E+00   1.369347E+00   1.369347E+00   1.369347E+00   1.369347E+00   1.369347E+00   1.369347E+00   1.369347E+00   1.369347E+00   1.369347E+00   1.369347E+00   1.369347E+00   1.369347E+00   1.369347E+00   1.369347E+00   1.369347E+00   1.369347E+00   1.369347E+00   1.369347E+00   1.369347E+00   1.369347E+00   1.369347E+00   1.369347E+00   1.369347E+00   1.369347E+00   1.369347E+00   1.369347E+00   1.369347E+00   1.369347E+00   1.369347E+00   1.369347E+00   1.369347E+00   1.369347E+00   1.369347E+00   1.369347E+00   1.369347E+00  -9.999000E+03  -9.999000E+03  -9.999000E+03  -9.999000E+03
  -9.999000E+03  -9.999000E+03  -9.999000E+03  -9.999000E+03  -9.999000E+03  -9.999000E+03  -9.999000E+03  -9.999000E+03  -9.999000E+03   1.369347E+00   1.369347E+00   1.369347E+00   1.369347E+00   1.369347E+00   1.369347E+00   1.369347E+00   1.369347E+00   1.369347E+00   1.369347E+00   1.369347E+00   1.369347E+00   1.369347E+00   1.369347E+00   1.369347E+00   1.369347E+00   1.369347E+00   1.369347E+00   1.369347E+00   1.369347E+00   1.369347E+00   1.369347E+00   1.369347E+00   1.369347E+00   1.369347E+00   1.369347E+00   1.369347E+00   1.369347E+00   1.369347E+00   1.369347E+00   1.369347E+00   1.369347E+00   1.369347E+00   1.369347E+00   1.369347E+00   1.369347E+00   1.369347E+00   1.369347E+00   1.369347E+00   1.369347E+00   1.369347E+00   1.369347E+00   1.369347E+00   1.369347E+00   1.369347E+00   1.369347E+00   1.369347E+00   1.369347E+00   1.369347E+00   1.369347E+00   1.369347E+00   1.369347E+00   1.369347E+00   1.369347E+00   1.369347E+00   1.369347E+00   1.369347E+00   1.369347E+00   1.369347E+00   1.369347E+00  -9.999000E+03  -9.999000E+03  -9.999000E+03  -9.999000E+03
  -9.999000E+03  -9.999000E+03  -9.999000E+03  -9.999000E+03  -9.999000E+03  -9.999000E+03  -9.999000E+03  -9.999000E+03  -9.999000E+03  -9.999000E+03   1.369347E+00   1.369347E+00   1.369347E+00   1.369347E+00   1.369347E+00   1.369347E+00   1.369347E+00   1.369347E+00   1.369347E+00   1.369347E+00   1.369347E+00   1.369347E+00   1.369347E+00   1.369347E+00   1.369347E+00   1.369347E+00   1.369347E+00   1.369347E+00   1.369347E+00   1.369347E+00   1.369347E+00   1.369347E+00   1.369347E+00   1.369347E+00   1.369347E+00   1.369347E+00   1.369347E+00   1.369347E+00   1.369347E+00   1.369347E+00   1.369347E+00   1.369347E+00   1.369347E+00   1.369347E+00   1.369347E+00   1.369347E+00   1.369347E+00   1.369347E+00   1.369347E+00   1.369347E+00   1.369347E+00   1.369347E+00   1.369347E+00   1.369347E+00   1.369347E+00   1.369347E+00   1.369347E+00   1.369347E+00   1.369347E+00   1.369347E+00   1.369347E+00   1.369347E+00   1.369347E+00   1.369347E+00   1.369347E+00   1.369347E+00   1.369347E+00   1.369347E+00  -9.999000E+03  -9.999000E+03  -9.999000E+03  -9.999000E+03  -9.999000E+03
  -9.999000E+03  -9.999000E+03  -9.999000E+03  -9.999000E+03  -9.999000E+03  -9.999000E+03  -9.999000E+03  -9.999000E+03  -9.999000E+03  -9.999000E+03  -9.999000E+03  -9.999000E+03   1.369347E+00   1.369347E+00   1.369347E+00   1.369347E+00   1.369347E+00   1.369347E+00   1.369347E+00   1.369347E+00   1.369347E+00   1.369347E+00   1.369347E+00   1.369347E+00   1.369347E+00   1.369347E+00   1.369347E+00   1.369347E+00   1.369347E+00   1.369347E+00   1.369347E+00   1.369347E+00   1.369347E+00   1.369347E+00   1.369347E+00   1.369347E+00   1.369347E+00   1.369347E+00   1.369347E+00   1.369347E+00   1.369347E+00   1.369347E+00   1.369347E+00   1.369347E+00   1.369347E+00   1.369347E+00   1.369347E+00   1.369347E+00   1.369347E+00   1.369347E+00   1.369347E+00   1.369347E+00   1.369347E+00   1.369347E+00   1.369347E+00   1.369347E+00   1.369347E+00   1.369347E+00   1.369347E+00   1.369347E+00   1.369347E+00   1.369347E+00   1.369347E+00   1.369347E+00   1.369347E+00   1.369347E+00   1.369347E+00   1.369347E+00  -9.999000E+03  -9.999000E+03  -9.999000E+03  -9.999000E+03  -9.999000E+03
  -9.999000E+03  -9.999000E+03  -9.999000E+03  -9.999000E+03  -9.999000E+03  -9.999000E+03  -9.999000E+03  -9.999000E+03  -9.999000E+03  -9.999000E+03  -9.999000E+03  -9.999000E+03   1.369347E+00   1.369347E+00   1.369347E+00   1.369347E+00   1.369347E+00   1.369347E+00   1.369347E+00   1.369347E+00   1.369347E+00   1.369347E+00   1.369347E+00   1.369347E+00   1.369347E+00   1.369347E+00   1.369347E+00   1.369347E+00   1.369347E+00   1.369347E+00   1.369347E+00   1.369347E+00   1.369347E+00   1.369347E+00   1.369347E+00   1.369347E+00   1.369347E+00   1.369347E+00   1.369347E+00   1.369347E+00   1.369347E+00   1.369347E+00   1.369347E+00   1.369347E+00   1.369347E+00   1.369347E+00   1.369347E+00   1.369347E+00   1.369347E+00   1.369347E+00   1.369347E+00   1.369347E+00   1.369347E+00   1.369347E+00   1.369347E+00   1.369347E+00   1.369347E+00   1.369347E+00   1.369347E+00   1.369347E+00   1.369347E+00   1.369347E+00   1.369347E+00   1.369347E+00   1.369347E+00   1.369347E+00   1.369347E+00   1.369347E+00  -9.999000E+03  -9.999000E+03  -9.999000E+03  -9.999000E+03  -9.999000E+03
  -9.999000E+03  -9.999000E+03  -9.999000E+03  -9.999000E+03  -9.999000E+03  -9.999000E+03  -9.999000E+03  -9.999000E+03  -9.999000E+03  -9.999000E+03  -9.999000E+03  -9.999000E+03  -9.999000E+03   1.369347E+00   1.369347E+00   1.369347E+00   1.369347E+00   1.369347E+00   1.369347E+00   1.369347E+00   1.369347E+00   1.369347E+00   1.369347E+00   1.369347E+00   1.369347E+00   1.369347E+00   1.369347E+00   1.369347E+00   1.369347E+00   1.369347E+00   1.369347E+00   1.369347E+00   1.369347E+00   1.369347E+00   1.369347E+00   1.369347E+00   1.369347E+00   1.369347E+00   1.369347E+00   1.369347E+00   1.369347E+00   1.369347E+00   1.369347E+00   1.369347E+00   1.369347E+00   1.369347E+00   1.369347E+00   1.369347E+00   1.369347E+00   1.369347E+00   1.369347E+00   1.369347E+00   1.369347E+00   1.369347E+00   1.369347E+00   1.369347E+00   1.369347E+00   1.369347E+00   1.369347E+00   1.369347E+00   1.369347E+00   1.369347E+00   1.369347E+00   1.369347E+00   1.369347E+00   1.369347E+00   1.369347E+00  -9.999000E+03  -9.999000E+03  -9.999000E+03  -9.999000E+03  -9.999000E+03  -9.999000E+03