# DIS package for MODFLOW-NWT generated by Flopy 3.3.0
         1       104        73         1         4         2
  0
CONSTANT    4.000000E+02                           #delr                          
CONSTANT    4.000000E+02                           #delc                          
INTERNAL               1  (73E15.6) -1 #model_top                     
  -9.999000E+03  -9.999000E+03  -9.999000E+03   4.281593E+02   4.184847E+02   4.088673E+02   4.126735E+02   4.120408E+02  -9.999000E+03  -9.999000E+03  -9.999000E+03  -9.999000E+03  -9.999000E+03  -9.999000E+03  -9.999000E+03  -9.999000E+03  -9.999000E+03  -9.999000E+03  -9.999000E+03  -9.999000E+03  -9.999000E+03  -9.999000E+03  -9.999000E+03  -9.999000E+03  -9.999000E+03  -9.999000E+03  -9.999000E+03  -9.999000E+03  -9.999000E+03  -9.999000E+03  -9.999000E+03  -9.999000E+03  -9.999000E+03  -9.999000E+03  -9.999000E+03  -9.999000E+03  -9.999000E+03  -9.999000E+03  -9.999000E+03  -9.999000E+03  -9.999000E+03  -9.999000E+03  -9.999000E+03  -9.999000E+03  -9.999000E+03  -9.999000E+03  -9.999000E+03  -9.999000E+03  -9.999000E+03  -9.999000E+03  -9.999000E+03  -9.999000E+03  -9.999000E+03  -9.999000E+03  -9.999000E+03  -9.999000E+03  -9.999000E+03  -9.999000E+03  -9.999000E+03  -9.999000E+03  -9.999000E+03  -9.999000E+03  -9.999000E+03  -9.999000E+03  -9.999000E+03  -9.999000E+03  -9.999000E+03  -9.999000E+03  -9.999000E+03  -9.999000E+03  -9.999000E+03  -9.999000E+03  -9.999000E+03
  -9.999000E+03   4.298163E+02   4.390357E+02   4.281758E+02   4.193418E+02   4.073469E+02   3.989694E+02   4.050969E+02   4.138418E+02  -9.999000E+03  -9.999000E+03  -9.999000E+03  -9.999000E+03  -9.999000E+03  -9.999000E+03  -9.999000E+03  -9.999000E+03  -9.999000E+03  -9.999000E+03  -9.999000E+03  -9.999000E+03  -9.999000E+03  -9.999000E+03  -9.999000E+03  -9.999000E+03  -9.999000E+03  -9.999000E+03  -9.999000E+03  -9.999000E+03  -9.999000E+03  -9.999000E+03  -9.999000E+03  -9.999000E+03  -9.999000E+03  -9.999000E+03  -9.999000E+03  -9.999000E+03  -9.999000E+03  -9.999000E+03  -9.999000E+03  -9.999000E+03  -9.999000E+03  -9.999000E+03  -9.999000E+03  -9.999000E+03  -9.999000E+03  -9.999000E+03  -9.999000E+03  -9.999000E+03  -9.999000E+03  -9.999000E+03  -9.999000E+03  -9.999000E+03  -9.999000E+03  -9.999000E+03  -9.999000E+03  -9.999000E+03  -9.999000E+03  -9.999000E+03  -9.999000E+03  -9.999000E+03  -9.999000E+03  -9.999000E+03  -9.999000E+03  -9.999000E+03  -9.999000E+03  -9.999000E+03  -9.999000E+03  -9.999000E+03  -9.999000E+03  -9.999000E+03  -9.999000E+03  -9.999000E+03
   4.276021E+02   4.236786E+02   4.327398E+02   4.356648E+02   4.330153E+02   4.158112E+02   3.934235E+02   4.005255E+02   4.106531E+02   4.213077E+02  -9.999000E+03  -9.999000E+03  -9.999000E+03  -9.999000E+03  -9.999000E+03  -9.999000E+03  -9.999000E+03  -9.999000E+03  -9.999000E+03  -9.999000E+03  -9.999000E+03  -9.999000E+03  -9.999000E+03  -9.999000E+03  -9.999000E+03  -9.999000E+03  -9.999000E+03  -9.999000E+03  -9.999000E+03  -9.999000E+03  -9.999000E+03  -9.999000E+03  -9.999000E+03  -9.999000E+03  -9.999000E+03  -9.999000E+03  -9.999000E+03  -9.999000E+03  -9.999000E+03  -9.999000E+03  -9.999000E+03  -9.999000E+03  -9.999000E+03  -9.999000E+03  -9.999000E+03  -9.999000E+03  -9.999000E+03  -9.999000E+03  -9.999000E+03  -9.999000E+03  -9.999000E+03  -9.999000E+03  -9.999000E+03  -9.999000E+03  -9.999000E+03  -9.999000E+03  -9.999000E+03  -9.999000E+03  -9.999000E+03  -9.999000E+03  -9.999000E+03  -9.999000E+03  -9.999000E+03  -9.999000E+03  -9.999000E+03  -9.999000E+03  -9.999000E+03  -9.999000E+03  -9.999000E+03  -9.999000E+03  -9.999000E+03  -9.999000E+03  -9.999000E+03
   4.278242E+02   4.195769E+02   4.134725E+02   4.131834E+02   4.192582E+02   4.134396E+02   3.929011E+02   3.900385E+02   3.986154E+02   4.143669E+02   4.130055E+02   4.195549E+02   4.122473E+02  -9.999000E+03  -9.999000E+03  -9.999000E+03  -9.999000E+03  -9.999000E+03  -9.999000E+03  -9.999000E+03  -9.999000E+03  -9.999000E+03  -9.999000E+03  -9.999000E+03  -9.999000E+03  -9.999000E+03  -9.999000E+03  -9.999000E+03  -9.999000E+03  -9.999000E+03  -9.999000E+03  -9.999000E+03  -9.999000E+03  -9.999000E+03  -9.999000E+03  -9.999000E+03  -9.999000E+03  -9.999000E+03  -9.999000E+03  -9.999000E+03  -9.999000E+03  -9.999000E+03  -9.999000E+03  -9.999000E+03  -9.999000E+03  -9.999000E+03  -9.999000E+03  -9.999000E+03  -9.999000E+03  -9.999000E+03  -9.999000E+03  -9.999000E+03  -9.999000E+03  -9.999000E+03  -9.999000E+03  -9.999000E+03  -9.999000E+03  -9.999000E+03  -9.999000E+03  -9.999000E+03  -9.999000E+03  -9.999000E+03  -9.999000E+03  -9.999000E+03  -9.999000E+03  -9.999000E+03  -9.999000E+03  -9.999000E+03  -9.999000E+03  -9.999000E+03  -9.999000E+03  -9.999000E+03  -9.999000E+03
   4.366479E+02   4.341888E+02   4.183724E+02   4.028077E+02   4.042551E+02   4.090816E+02   3.951684E+02   3.828316E+02   3.961633E+02   4.065000E+02   4.186582E+02   4.141479E+02   4.074388E+02   4.275357E+02   4.206327E+02   4.256758E+02   4.359898E+02   4.287245E+02   4.252704E+02   4.168979E+02  -9.999000E+03  -9.999000E+03  -9.999000E+03  -9.999000E+03  -9.999000E+03  -9.999000E+03  -9.999000E+03  -9.999000E+03  -9.999000E+03  -9.999000E+03  -9.999000E+03  -9.999000E+03  -9.999000E+03  -9.999000E+03  -9.999000E+03  -9.999000E+03  -9.999000E+03  -9.999000E+03  -9.999000E+03  -9.999000E+03  -9.999000E+03  -9.999000E+03  -9.999000E+03  -9.999000E+03  -9.999000E+03  -9.999000E+03  -9.999000E+03  -9.999000E+03  -9.999000E+03  -9.999000E+03  -9.999000E+03  -9.999000E+03  -9.999000E+03  -9.999000E+03  -9.999000E+03  -9.999000E+03  -9.999000E+03  -9.999000E+03  -9.999000E+03  -9.999000E+03  -9.999000E+03  -9.999000E+03  -9.999000E+03  -9.999000E+03  -9.999000E+03  -9.999000E+03  -9.999000E+03  -9.999000E+03  -9.999000E+03  -9.999000E+03  -9.999000E+03  -9.999000E+03  -9.999000E+03
  -9.999000E+03  -9.999000E+03   4.216888E+02   4.062473E+02   3.951378E+02   3.978929E+02   3.965306E+02   3.788673E+02   3.874337E+02   4.037747E+02   4.121990E+02   3.961021E+02   4.084694E+02   4.183010E+02   4.103265E+02   4.165385E+02   4.189388E+02   4.173776E+02   4.147143E+02   4.226837E+02   4.190357E+02  -9.999000E+03  -9.999000E+03  -9.999000E+03  -9.999000E+03  -9.999000E+03  -9.999000E+03  -9.999000E+03  -9.999000E+03  -9.999000E+03  -9.999000E+03  -9.999000E+03  -9.999000E+03  -9.999000E+03  -9.999000E+03  -9.999000E+03  -9.999000E+03  -9.999000E+03  -9.999000E+03  -9.999000E+03  -9.999000E+03  -9.999000E+03  -9.999000E+03  -9.999000E+03  -9.999000E+03  -9.999000E+03  -9.999000E+03  -9.999000E+03  -9.999000E+03  -9.999000E+03  -9.999000E+03  -9.999000E+03  -9.999000E+03  -9.999000E+03  -9.999000E+03  -9.999000E+03  -9.999000E+03  -9.999000E+03  -9.999000E+03  -9.999000E+03  -9.999000E+03  -9.999000E+03  -9.999000E+03  -9.999000E+03  -9.999000E+03  -9.999000E+03  -9.999000E+03  -9.999000E+03  -9.999000E+03  -9.999000E+03  -9.999000E+03  -9.999000E+03  -9.999000E+03
  -9.999000E+03  -9.999000E+03   4.161224E+02   4.066758E+02   3.978469E+02   3.873776E+02   3.828673E+02   3.758367E+02   3.864541E+02   4.073956E+02   4.028622E+02   3.898214E+02   4.048316E+02   4.016939E+02   3.978367E+02   4.017692E+02   4.149286E+02   4.170816E+02   4.021327E+02   4.098316E+02   4.153367E+02   4.213517E+02  -9.999000E+03  -9.999000E+03  -9.999000E+03  -9.999000E+03  -9.999000E+03  -9.999000E+03  -9.999000E+03  -9.999000E+03  -9.999000E+03  -9.999000E+03  -9.999000E+03  -9.999000E+03  -9.999000E+03  -9.999000E+03  -9.999000E+03  -9.999000E+03  -9.999000E+03   3.855055E+02   3.895357E+02  -9.999000E+03  -9.999000E+03   3.915714E+02   4.044439E+02   3.921868E+02  -9.999000E+03  -9.999000E+03  -9.999000E+03  -9.999000E+03   3.848367E+02   3.709451E+02  -9.999000E+03  -9.999000E+03  -9.999000E+03  -9.999000E+03  -9.999000E+03  -9.999000E+03  -9.999000E+03  -9.999000E+03  -9.999000E+03  -9.999000E+03  -9.999000E+03  -9.999000E+03  -9.999000E+03  -9.999000E+03  -9.999000E+03  -9.999000E+03  -9.999000E+03  -9.999000E+03  -9.999000E+03  -9.999000E+03  -9.999000E+03
  -9.999000E+03  -9.999000E+03   4.070867E+02   4.032692E+02   3.965816E+02   3.924949E+02   3.834337E+02   3.743979E+02   3.799796E+02   4.035879E+02   3.919796E+02   3.823010E+02   3.989337E+02   3.892245E+02   3.936021E+02   4.153407E+02   4.176990E+02   4.075612E+02   3.915102E+02   3.998112E+02   4.183010E+02   4.372582E+02  -9.999000E+03  -9.999000E+03  -9.999000E+03  -9.999000E+03  -9.999000E+03  -9.999000E+03  -9.999000E+03  -9.999000E+03  -9.999000E+03  -9.999000E+03  -9.999000E+03  -9.999000E+03  -9.999000E+03  -9.999000E+03   4.169337E+02   4.083673E+02   4.053265E+02   3.885879E+02   3.818878E+02   3.861633E+02   3.982500E+02   3.997551E+02   4.054490E+02   3.867912E+02   3.781684E+02  -9.999000E+03  -9.999000E+03   3.825663E+02   3.860612E+02   3.818791E+02  -9.999000E+03  -9.999000E+03  -9.999000E+03  -9.999000E+03  -9.999000E+03  -9.999000E+03  -9.999000E+03  -9.999000E+03  -9.999000E+03  -9.999000E+03  -9.999000E+03  -9.999000E+03  -9.999000E+03  -9.999000E+03  -9.999000E+03  -9.999000E+03  -9.999000E+03  -9.999000E+03  -9.999000E+03  -9.999000E+03  -9.999000E+03
  -9.999000E+03  -9.999000E+03  -9.999000E+03   3.955275E+02   3.888265E+02   3.844745E+02   3.783469E+02   3.719082E+02   3.717296E+02   3.934451E+02   3.885102E+02   3.774592E+02   3.835765E+02   3.875255E+02   4.051837E+02   4.131099E+02   4.130510E+02   4.035051E+02   3.873316E+02   4.011021E+02   4.116276E+02   4.328132E+02  -9.999000E+03  -9.999000E+03  -9.999000E+03  -9.999000E+03  -9.999000E+03   4.114835E+02   4.120102E+02  -9.999000E+03   4.034643E+02   4.010918E+02   3.953163E+02   3.944561E+02   3.960357E+02   4.041837E+02   4.118979E+02   4.028316E+02   3.949337E+02   3.843517E+02   3.741837E+02   3.879031E+02   3.930204E+02   3.929592E+02   3.892551E+02   3.808626E+02   3.770306E+02  -9.999000E+03   3.734796E+02   3.740459E+02   3.803010E+02   3.760549E+02   3.740561E+02  -9.999000E+03  -9.999000E+03  -9.999000E+03  -9.999000E+03  -9.999000E+03  -9.999000E+03  -9.999000E+03  -9.999000E+03  -9.999000E+03  -9.999000E+03  -9.999000E+03  -9.999000E+03  -9.999000E+03  -9.999000E+03  -9.999000E+03  -9.999000E+03  -9.999000E+03  -9.999000E+03  -9.999000E+03  -9.999000E+03
  -9.999000E+03  -9.999000E+03  -9.999000E+03   3.986864E+02   4.019725E+02   3.913462E+02   3.804725E+02   3.704780E+02   3.676758E+02   3.806568E+02   3.814506E+02   3.723462E+02   3.827143E+02   4.073187E+02   4.115220E+02   4.136923E+02   4.022802E+02   3.950714E+02   3.829341E+02   3.986758E+02   4.122692E+02   4.267219E+02   4.377857E+02   4.352582E+02   4.266868E+02   4.311264E+02   4.309890E+02   4.111183E+02   4.099341E+02   4.009615E+02   4.030165E+02   4.003242E+02   3.952143E+02   3.916864E+02   3.957088E+02   3.975989E+02   3.955494E+02   3.877253E+02   3.839725E+02   3.816272E+02   3.735275E+02   3.905439E+02   3.942967E+02   3.782033E+02   3.763571E+02   3.805740E+02   3.713242E+02   3.675824E+02   3.667747E+02   3.664066E+02   3.670604E+02   3.680355E+02   3.777967E+02  -9.999000E+03  -9.999000E+03  -9.999000E+03  -9.999000E+03  -9.999000E+03  -9.999000E+03  -9.999000E+03  -9.999000E+03  -9.999000E+03  -9.999000E+03  -9.999000E+03  -9.999000E+03  -9.999000E+03  -9.999000E+03  -9.999000E+03  -9.999000E+03  -9.999000E+03  -9.999000E+03  -9.999000E+03  -9.999000E+03
  -9.999000E+03  -9.999000E+03  -9.999000E+03  -9.999000E+03   4.079949E+02   3.926224E+02   3.810357E+02   3.824031E+02   3.669031E+02   3.676758E+02   3.699643E+02   3.709541E+02   3.892449E+02   4.054541E+02   3.999898E+02   4.069341E+02   3.959031E+02   3.866837E+02   3.784133E+02   3.879949E+02   3.976224E+02   4.054780E+02   4.181479E+02   4.272857E+02   4.074745E+02   4.038776E+02   4.119031E+02   4.060275E+02   3.996786E+02   3.937092E+02   3.961479E+02   3.995000E+02   3.922704E+02   3.841923E+02   3.843316E+02   3.901276E+02   3.880357E+02   3.776327E+02   3.836071E+02   3.905439E+02   3.773112E+02   3.728061E+02   3.787602E+02   3.765969E+02   3.712806E+02   3.744286E+02   3.709541E+02   3.621888E+02   3.610102E+02   3.584898E+02   3.581786E+02   3.685494E+02   3.816224E+02   3.847092E+02  -9.999000E+03  -9.999000E+03  -9.999000E+03  -9.999000E+03  -9.999000E+03  -9.999000E+03  -9.999000E+03  -9.999000E+03  -9.999000E+03  -9.999000E+03  -9.999000E+03  -9.999000E+03  -9.999000E+03  -9.999000E+03  -9.999000E+03  -9.999000E+03  -9.999000E+03  -9.999000E+03  -9.999000E+03
  -9.999000E+03  -9.999000E+03  -9.999000E+03  -9.999000E+03   3.982602E+02   3.921479E+02   3.960612E+02   3.917143E+02   3.710102E+02   3.600385E+02   3.608673E+02   3.747755E+02   3.903367E+02   3.993418E+02   3.938112E+02   4.115220E+02   4.080510E+02   4.021684E+02   3.748469E+02   3.876939E+02   4.010357E+02   4.100659E+02   4.078010E+02   4.075051E+02   3.962959E+02   3.922806E+02   4.121990E+02   4.046154E+02   3.899490E+02   3.837602E+02   3.961684E+02   4.126939E+02   4.023265E+02   3.939725E+02   3.779745E+02   3.799235E+02   3.898929E+02   3.749286E+02   3.721888E+02   3.830000E+02   3.763724E+02   3.624439E+02   3.644898E+02   3.716837E+02   3.663979E+02   3.629066E+02   3.713265E+02   3.671735E+02   3.552347E+02   3.522041E+02   3.606582E+02   3.789066E+02   3.841224E+02   3.899184E+02  -9.999000E+03  -9.999000E+03  -9.999000E+03  -9.999000E+03  -9.999000E+03  -9.999000E+03  -9.999000E+03  -9.999000E+03  -9.999000E+03  -9.999000E+03  -9.999000E+03  -9.999000E+03  -9.999000E+03  -9.999000E+03  -9.999000E+03  -9.999000E+03  -9.999000E+03  -9.999000E+03  -9.999000E+03
  -9.999000E+03  -9.999000E+03  -9.999000E+03  -9.999000E+03  -9.999000E+03  -9.999000E+03  -9.999000E+03   3.933571E+02   3.790663E+02   3.634121E+02   3.585765E+02   3.738571E+02   3.762500E+02   3.843163E+02   3.947755E+02   4.178517E+02   4.129694E+02   3.888979E+02   3.721582E+02   3.899490E+02   4.060816E+02   4.259451E+02   4.149694E+02   3.968521E+02   3.927398E+02   3.840102E+02   3.943418E+02   3.912692E+02   3.941224E+02   3.796429E+02   3.870255E+02   4.040102E+02   4.098929E+02   3.911209E+02   3.924031E+02   3.749184E+02   3.737398E+02   3.884490E+02   3.687908E+02   3.741703E+02   3.699694E+02   3.681276E+02   3.576786E+02   3.663521E+02   3.599694E+02   3.645439E+02   3.804541E+02   3.718418E+02   3.625969E+02   3.497908E+02   3.690102E+02   3.741648E+02   3.790714E+02   3.735765E+02   3.675816E+02   3.691276E+02  -9.999000E+03  -9.999000E+03  -9.999000E+03  -9.999000E+03  -9.999000E+03  -9.999000E+03  -9.999000E+03  -9.999000E+03  -9.999000E+03  -9.999000E+03  -9.999000E+03  -9.999000E+03  -9.999000E+03  -9.999000E+03  -9.999000E+03  -9.999000E+03  -9.999000E+03
  -9.999000E+03  -9.999000E+03  -9.999000E+03  -9.999000E+03  -9.999000E+03  -9.999000E+03  -9.999000E+03   4.059541E+02   3.916327E+02   3.773846E+02   3.572194E+02   3.631582E+02   3.697143E+02   3.954490E+02   4.005357E+02   4.116758E+02   4.028673E+02   4.017296E+02   3.698776E+02   3.833112E+02   3.939694E+02   3.988791E+02   4.115255E+02   4.156990E+02   3.983622E+02   3.831531E+02   3.797245E+02   3.812912E+02   4.023061E+02   3.833367E+02   3.773724E+02   3.916684E+02   4.036633E+02   3.954506E+02   3.931990E+02   3.800153E+02   3.732857E+02   3.694745E+02   3.676429E+02   3.579231E+02   3.699592E+02   3.723163E+02   3.554184E+02   3.512806E+02   3.585153E+02   3.663846E+02   3.752653E+02   3.807857E+02   3.628010E+02   3.500357E+02   3.609235E+02   3.593407E+02   3.597347E+02   3.597194E+02   3.751021E+02   3.657959E+02   3.564592E+02  -9.999000E+03  -9.999000E+03  -9.999000E+03  -9.999000E+03  -9.999000E+03  -9.999000E+03  -9.999000E+03  -9.999000E+03  -9.999000E+03  -9.999000E+03  -9.999000E+03  -9.999000E+03  -9.999000E+03  -9.999000E+03  -9.999000E+03  -9.999000E+03
  -9.999000E+03  -9.999000E+03  -9.999000E+03  -9.999000E+03  -9.999000E+03  -9.999000E+03  -9.999000E+03   3.939337E+02   3.812041E+02   3.689396E+02   3.569082E+02   3.582908E+02   3.665561E+02   3.816429E+02   3.906173E+02   3.883571E+02   3.835357E+02   3.812347E+02   3.648622E+02   3.793521E+02   3.810561E+02   3.932033E+02   4.103418E+02   4.091479E+02   3.976837E+02   3.944286E+02   3.803979E+02   3.765714E+02   3.883061E+02   3.776837E+02   3.699796E+02   3.909643E+02   4.010918E+02   3.892418E+02   3.851071E+02   3.941378E+02   3.812806E+02   3.651837E+02   3.594847E+02   3.546264E+02   3.542449E+02   3.577296E+02   3.516122E+02   3.521173E+02   3.550204E+02   3.715385E+02   3.868265E+02   3.835102E+02   3.755510E+02   3.540714E+02   3.451378E+02   3.451648E+02   3.543776E+02   3.703367E+02   3.645255E+02   3.644541E+02   3.531888E+02   3.613673E+02  -9.999000E+03  -9.999000E+03  -9.999000E+03  -9.999000E+03  -9.999000E+03  -9.999000E+03  -9.999000E+03  -9.999000E+03  -9.999000E+03  -9.999000E+03  -9.999000E+03  -9.999000E+03  -9.999000E+03  -9.999000E+03  -9.999000E+03
  -9.999000E+03  -9.999000E+03  -9.999000E+03  -9.999000E+03  -9.999000E+03  -9.999000E+03   3.991099E+02   4.095220E+02   3.998901E+02   3.760533E+02   3.567912E+02   3.578901E+02   3.733517E+02   3.950659E+02   3.919121E+02   3.874970E+02   3.715220E+02   3.643132E+02   3.603571E+02   3.663517E+02   3.726703E+02   3.833077E+02   4.072253E+02   4.072088E+02   3.945275E+02   4.122198E+02   3.900494E+02   3.701716E+02   3.688352E+02   3.627912E+02   3.671044E+02   3.790385E+02   3.903517E+02   3.770355E+02   3.795110E+02   3.884890E+02   3.768571E+02   3.683791E+02   3.711209E+02   3.743018E+02   3.578571E+02   3.463626E+02   3.449945E+02   3.441374E+02   3.632582E+02   3.738462E+02   3.835275E+02   3.758791E+02   3.698407E+02   3.663681E+02   3.515165E+02   3.445325E+02   3.449176E+02   3.559341E+02   3.561648E+02   3.639286E+02   3.491593E+02   3.520330E+02   3.526746E+02  -9.999000E+03  -9.999000E+03  -9.999000E+03  -9.999000E+03  -9.999000E+03  -9.999000E+03  -9.999000E+03  -9.999000E+03  -9.999000E+03  -9.999000E+03  -9.999000E+03  -9.999000E+03  -9.999000E+03  -9.999000E+03
  -9.999000E+03  -9.999000E+03  -9.999000E+03  -9.999000E+03  -9.999000E+03  -9.999000E+03   3.978827E+02   4.104643E+02   4.138061E+02   3.762692E+02   3.570561E+02   3.543469E+02   3.685153E+02   3.849388E+02   3.807908E+02   3.822198E+02   3.816276E+02   3.591837E+02   3.602347E+02   3.840969E+02   3.949796E+02   4.094890E+02   4.105714E+02   4.059745E+02   3.859949E+02   4.017551E+02   3.878827E+02   3.808901E+02   3.692092E+02   3.560969E+02   3.593979E+02   3.849133E+02   3.934898E+02   3.911154E+02   3.732857E+02   3.750000E+02   3.787296E+02   3.785357E+02   3.657245E+02   3.614835E+02   3.514388E+02   3.481786E+02   3.404541E+02   3.435663E+02   3.587908E+02   3.739451E+02   3.786378E+02   3.679184E+02   3.583724E+02   3.508878E+02   3.590357E+02   3.486209E+02   3.358214E+02   3.417092E+02   3.559949E+02   3.613010E+02   3.543673E+02   3.394694E+02   3.529945E+02   3.435306E+02  -9.999000E+03  -9.999000E+03  -9.999000E+03  -9.999000E+03  -9.999000E+03  -9.999000E+03  -9.999000E+03  -9.999000E+03  -9.999000E+03  -9.999000E+03  -9.999000E+03  -9.999000E+03  -9.999000E+03
  -9.999000E+03  -9.999000E+03  -9.999000E+03  -9.999000E+03  -9.999000E+03  -9.999000E+03  -9.999000E+03  -9.999000E+03   4.128979E+02   3.847582E+02   3.627755E+02   3.501837E+02   3.630357E+02   3.839796E+02   3.835408E+02   3.688846E+02   3.600153E+02   3.495561E+02   3.689337E+02   4.152449E+02   4.124439E+02   4.219890E+02   4.198469E+02   4.070357E+02   3.828827E+02   3.769337E+02   3.822245E+02   3.871703E+02   3.785969E+02   3.608521E+02   3.547500E+02   3.721429E+02   3.805867E+02   3.881264E+02   3.697653E+02   3.637551E+02   3.706224E+02   3.755663E+02   3.607602E+02   3.434835E+02   3.409337E+02   3.396735E+02   3.450816E+02   3.373112E+02   3.515408E+02   3.609176E+02   3.585918E+02   3.561327E+02   3.615816E+02   3.471582E+02   3.524745E+02   3.580934E+02   3.351531E+02   3.410561E+02   3.619184E+02   3.589439E+02   3.469031E+02   3.442653E+02   3.350714E+02   3.432449E+02   3.345561E+02   3.287551E+02  -9.999000E+03  -9.999000E+03  -9.999000E+03  -9.999000E+03  -9.999000E+03  -9.999000E+03  -9.999000E+03  -9.999000E+03  -9.999000E+03  -9.999000E+03  -9.999000E+03
  -9.999000E+03  -9.999000E+03  -9.999000E+03  -9.999000E+03  -9.999000E+03  -9.999000E+03  -9.999000E+03  -9.999000E+03   3.816173E+02   3.997418E+02   3.709796E+02   3.463979E+02   3.604235E+02   3.901021E+02   3.851479E+02   3.649945E+02   3.478929E+02   3.508929E+02   3.752092E+02   3.856327E+02   4.147500E+02   4.187637E+02   3.898776E+02   3.857449E+02   3.765255E+02   3.699235E+02   3.837602E+02   3.902088E+02   3.904184E+02   3.656122E+02   3.508827E+02   3.623724E+02   3.791531E+02   3.690330E+02   3.674745E+02   3.595663E+02   3.637500E+02   3.709490E+02   3.535459E+02   3.547198E+02   3.474643E+02   3.350357E+02   3.328061E+02   3.546071E+02   3.658929E+02   3.563956E+02   3.456531E+02   3.573776E+02   3.655204E+02   3.505663E+02   3.415867E+02   3.353187E+02   3.358367E+02   3.348929E+02   3.521224E+02   3.609082E+02   3.475714E+02   3.342092E+02   3.336978E+02   3.258418E+02   3.313265E+02   3.366479E+02  -9.999000E+03  -9.999000E+03  -9.999000E+03  -9.999000E+03  -9.999000E+03  -9.999000E+03  -9.999000E+03  -9.999000E+03  -9.999000E+03  -9.999000E+03  -9.999000E+03
  -9.999000E+03  -9.999000E+03  -9.999000E+03  -9.999000E+03  -9.999000E+03  -9.999000E+03  -9.999000E+03  -9.999000E+03   3.908418E+02   3.816264E+02   3.672704E+02   3.476224E+02   3.486122E+02   3.621888E+02   3.637449E+02   3.502418E+02   3.448316E+02   3.674796E+02   3.812755E+02   3.865408E+02   3.813367E+02   3.846978E+02   3.755612E+02   3.925459E+02   3.777449E+02   3.705612E+02   3.645204E+02   3.840000E+02   3.742245E+02   3.611327E+02   3.472500E+02   3.592602E+02   3.634847E+02   3.585714E+02   3.518673E+02   3.544031E+02   3.624133E+02   3.586378E+02   3.617398E+02   3.683736E+02   3.555408E+02   3.412500E+02   3.347194E+02   3.607143E+02   3.465663E+02   3.405385E+02   3.529847E+02   3.618776E+02   3.701479E+02   3.665510E+02   3.548010E+02   3.311154E+02   3.245663E+02   3.384286E+02   3.386888E+02   3.542857E+02   3.445102E+02   3.392398E+02   3.228626E+02   3.162092E+02   3.201837E+02   3.286582E+02  -9.999000E+03  -9.999000E+03  -9.999000E+03   2.966021E+02   3.050051E+02  -9.999000E+03  -9.999000E+03  -9.999000E+03  -9.999000E+03  -9.999000E+03  -9.999000E+03
  -9.999000E+03  -9.999000E+03  -9.999000E+03  -9.999000E+03  -9.999000E+03  -9.999000E+03  -9.999000E+03  -9.999000E+03   3.922602E+02   3.800385E+02   3.622296E+02   3.516122E+02   3.425663E+02   3.483061E+02   3.477245E+02   3.407363E+02   3.473878E+02   3.656276E+02   3.744439E+02   3.773929E+02   3.670918E+02   3.800989E+02   3.645663E+02   3.784031E+02   3.997959E+02   3.836837E+02   3.568929E+02   3.572308E+02   3.735765E+02   3.610255E+02   3.455918E+02   3.509031E+02   3.534847E+02   3.509945E+02   3.519184E+02   3.530510E+02   3.489847E+02   3.588724E+02   3.710714E+02   3.679231E+02   3.744133E+02   3.496429E+02   3.278827E+02   3.422755E+02   3.377806E+02   3.482418E+02   3.608418E+02   3.690918E+02   3.651582E+02   3.635663E+02   3.484286E+02   3.496593E+02   3.273673E+02   3.245765E+02   3.254745E+02   3.392704E+02   3.290153E+02   3.304184E+02   3.232857E+02   3.122143E+02   3.127398E+02   3.180000E+02   3.149949E+02   3.075204E+02   3.059231E+02   3.102602E+02   3.085459E+02   3.071735E+02  -9.999000E+03  -9.999000E+03  -9.999000E+03  -9.999000E+03  -9.999000E+03
  -9.999000E+03  -9.999000E+03  -9.999000E+03  -9.999000E+03  -9.999000E+03  -9.999000E+03  -9.999000E+03  -9.999000E+03  -9.999000E+03   3.788521E+02   3.891429E+02   3.730989E+02   3.454670E+02   3.400824E+02   3.397582E+02   3.367041E+02   3.449231E+02   3.628791E+02   3.683626E+02   3.648791E+02   3.598736E+02   3.789053E+02   3.640330E+02   3.894011E+02   3.932527E+02   3.788846E+02   3.609506E+02   3.485976E+02   3.566758E+02   3.532418E+02   3.461374E+02   3.419286E+02   3.558791E+02   3.516390E+02   3.431099E+02   3.431923E+02   3.603846E+02   3.583956E+02   3.493297E+02   3.568343E+02   3.737637E+02   3.578846E+02   3.381593E+02   3.238956E+02   3.358407E+02   3.617692E+02   3.681868E+02   3.550879E+02   3.463352E+02   3.451154E+02   3.407253E+02   3.507219E+02   3.413626E+02   3.300110E+02   3.214670E+02   3.138571E+02   3.130879E+02   3.204780E+02   3.161420E+02   3.080385E+02   3.079176E+02   3.129011E+02   3.090934E+02   3.082692E+02   3.064083E+02   3.065659E+02   3.065330E+02   3.127033E+02   3.189780E+02  -9.999000E+03  -9.999000E+03  -9.999000E+03  -9.999000E+03
  -9.999000E+03  -9.999000E+03  -9.999000E+03  -9.999000E+03  -9.999000E+03  -9.999000E+03  -9.999000E+03  -9.999000E+03  -9.999000E+03   3.887418E+02   3.821378E+02   3.651582E+02   3.533571E+02   3.412245E+02   3.368367E+02   3.322527E+02   3.370663E+02   3.470561E+02   3.500612E+02   3.466633E+02   3.608929E+02   3.797418E+02   3.552755E+02   3.754898E+02   3.761633E+02   3.682755E+02   3.666735E+02   3.483462E+02   3.441479E+02   3.476479E+02   3.519541E+02   3.396735E+02   3.445714E+02   3.444561E+02   3.359592E+02   3.449694E+02   3.576071E+02   3.642500E+02   3.480102E+02   3.546593E+02   3.531479E+02   3.462704E+02   3.210918E+02   3.229337E+02   3.464439E+02   3.644615E+02   3.589439E+02   3.484694E+02   3.338827E+02   3.332194E+02   3.349133E+02   3.345934E+02   3.448827E+02   3.327500E+02   3.195357E+02   3.153622E+02   3.086327E+02   3.094745E+02   3.116978E+02   3.094796E+02   3.045000E+02   3.083316E+02   3.020867E+02   3.010357E+02   3.040549E+02   3.043673E+02   3.059490E+02   3.182245E+02   3.285000E+02  -9.999000E+03  -9.999000E+03  -9.999000E+03  -9.999000E+03
  -9.999000E+03  -9.999000E+03  -9.999000E+03  -9.999000E+03  -9.999000E+03  -9.999000E+03  -9.999000E+03  -9.999000E+03  -9.999000E+03  -9.999000E+03   3.733112E+02   3.869643E+02   4.085714E+02   3.678163E+02   3.531735E+02   3.436538E+02   3.291582E+02   3.346327E+02   3.486173E+02   3.411531E+02   3.652602E+02   3.681923E+02   3.496888E+02   3.770357E+02   3.658163E+02   3.610102E+02   3.453724E+02   3.488242E+02   3.415765E+02   3.438878E+02   3.538571E+02   3.424643E+02   3.345408E+02   3.331923E+02   3.391327E+02   3.465714E+02   3.636837E+02   3.648469E+02   3.494184E+02   3.445769E+02   3.313878E+02   3.232500E+02   3.216786E+02   3.250612E+02   3.409949E+02   3.448187E+02   3.371429E+02   3.364745E+02   3.279592E+02   3.383673E+02   3.236378E+02   3.183187E+02   3.267449E+02   3.279235E+02   3.234031E+02   3.209439E+02   3.082704E+02   3.070867E+02   3.067473E+02   3.114847E+02   2.995153E+02   3.014643E+02   3.017704E+02   2.977959E+02   3.003462E+02   3.060816E+02   3.108112E+02   3.254898E+02  -9.999000E+03  -9.999000E+03  -9.999000E+03  -9.999000E+03  -9.999000E+03
  -9.999000E+03  -9.999000E+03  -9.999000E+03  -9.999000E+03  -9.999000E+03  -9.999000E+03  -9.999000E+03  -9.999000E+03  -9.999000E+03  -9.999000E+03  -9.999000E+03  -9.999000E+03   3.962296E+02   3.818418E+02   3.876531E+02   3.613297E+02   3.339490E+02   3.255510E+02   3.327908E+02   3.338622E+02   3.576633E+02   3.530439E+02   3.594745E+02   3.690561E+02   3.523418E+02   3.461837E+02   3.400255E+02   3.406703E+02   3.368469E+02   3.449133E+02   3.494133E+02   3.383979E+02   3.288163E+02   3.296483E+02   3.488112E+02   3.626939E+02   3.756633E+02   3.678418E+02   3.674847E+02   3.495989E+02   3.212092E+02   3.156735E+02   3.246582E+02   3.208776E+02   3.421837E+02   3.483297E+02   3.299490E+02   3.276276E+02   3.199643E+02   3.272245E+02   3.126633E+02   3.135110E+02   3.232908E+02   3.224949E+02   3.162245E+02   3.176122E+02   3.072602E+02   3.025612E+02   2.997308E+02   2.994847E+02   3.017092E+02   2.942857E+02   3.031582E+02   2.975204E+02   2.998352E+02   3.113929E+02   3.183163E+02   3.298622E+02  -9.999000E+03  -9.999000E+03  -9.999000E+03  -9.999000E+03  -9.999000E+03
  -9.999000E+03  -9.999000E+03  -9.999000E+03  -9.999000E+03  -9.999000E+03  -9.999000E+03  -9.999000E+03  -9.999000E+03  -9.999000E+03  -9.999000E+03  -9.999000E+03  -9.999000E+03   3.739694E+02   3.734235E+02   3.598929E+02   3.473297E+02   3.357959E+02   3.263571E+02   3.219388E+02   3.238367E+02   3.370051E+02   3.359835E+02   3.495408E+02   3.510102E+02   3.493724E+02   3.419949E+02   3.388673E+02   3.385769E+02   3.293521E+02   3.362857E+02   3.323878E+02   3.319133E+02   3.262296E+02   3.333901E+02   3.518521E+02   3.647245E+02   3.599745E+02   3.497500E+02   3.578521E+02   3.362253E+02   3.306071E+02   3.165918E+02   3.134439E+02   3.077398E+02   3.286633E+02   3.342198E+02   3.230867E+02   3.259694E+02   3.134745E+02   3.203061E+02   3.153521E+02   3.066648E+02   3.097245E+02   3.097959E+02   3.119745E+02   3.125612E+02   3.086327E+02   3.011786E+02   3.007198E+02   3.005051E+02   2.927194E+02   2.933265E+02   3.034643E+02   2.948367E+02   3.018517E+02   3.101633E+02   3.185255E+02   3.283776E+02  -9.999000E+03  -9.999000E+03  -9.999000E+03  -9.999000E+03  -9.999000E+03
  -9.999000E+03  -9.999000E+03  -9.999000E+03  -9.999000E+03  -9.999000E+03  -9.999000E+03  -9.999000E+03  -9.999000E+03  -9.999000E+03  -9.999000E+03  -9.999000E+03  -9.999000E+03  -9.999000E+03   3.880408E+02   3.797143E+02   3.730879E+02   3.451939E+02   3.358469E+02   3.245408E+02   3.194133E+02   3.216786E+02   3.328571E+02   3.396479E+02   3.476786E+02   3.506378E+02   3.530408E+02   3.481327E+02   3.409506E+02   3.284847E+02   3.234286E+02   3.284235E+02   3.276582E+02   3.267908E+02   3.476868E+02   3.587602E+02   3.621479E+02   3.537551E+02   3.398367E+02   3.355102E+02   3.408462E+02   3.360561E+02   3.303367E+02   3.113571E+02   3.031122E+02   3.155153E+02   3.299725E+02   3.162245E+02   3.098010E+02   3.055408E+02   3.137857E+02   3.118265E+02   3.103187E+02   3.013214E+02   3.067449E+02   3.057041E+02   3.065612E+02   3.109133E+02   3.094337E+02   3.087088E+02   3.053673E+02   2.895561E+02   2.958163E+02   2.977449E+02   2.922449E+02   2.996593E+02   3.109031E+02   3.159133E+02  -9.999000E+03  -9.999000E+03  -9.999000E+03  -9.999000E+03  -9.999000E+03  -9.999000E+03