# Output Control file, modified by QSWATMOD2 plugin version 2.10.0. - 01/14/26 10:06:32 -
# OC package for MODFLOW-NWT generated by Flopy 3.3.0
HEAD PRINT FORMAT   1
HEAD	SAVE	UNIT	5051
DRAWDOWN PRINT FORMAT   0
COMPACT BUDGET AUX

period 1 step 1 
  save head

