 Head values for selected MODFLOW cells
  2.44324E+02  2.28112E+02  1.97550E+02
  2.44356E+02  2.28149E+02  1.97549E+02
  2.44386E+02  2.28185E+02  1.97549E+02
  2.44416E+02  2.28221E+02  1.97549E+02
  2.44445E+02  2.28257E+02  1.97549E+02
  2.44473E+02  2.28292E+02  1.97548E+02
  2.44501E+02  2.28327E+02  1.97548E+02
  2.44528E+02  2.28362E+02  1.97548E+02
  2.44555E+02  2.28397E+02  1.97548E+02
  2.44580E+02  2.28431E+02  1.97547E+02
  2.44605E+02  2.28465E+02  1.97547E+02
  2.44630E+02  2.28498E+02  1.97547E+02
  2.44654E+02  2.28532E+02  1.97546E+02
  2.44677E+02  2.28565E+02  1.97546E+02
  2.44700E+02  2.28598E+02  1.97546E+02
  2.44722E+02  2.28630E+02  1.97546E+02
  2.44744E+02  2.28663E+02  1.97545E+02
  2.44765E+02  2.28695E+02  1.97545E+02
  2.44786E+02  2.28727E+02  1.97545E+02
  2.44806E+02  2.28758E+02  1.97545E+02
  2.44826E+02  2.28790E+02  1.97544E+02
  2.44845E+02  2.28821E+02  1.97544E+02
  2.44864E+02  2.28852E+02  1.97544E+02
  2.44882E+02  2.28883E+02  1.97544E+02
  2.44900E+02  2.28913E+02  1.97543E+02
  2.44918E+02  2.28944E+02  1.97543E+02
  2.44971E+02  2.28974E+02  1.97548E+02
  2.45020E+02  2.29004E+02  1.97553E+02
  2.45064E+02  2.29034E+02  1.97557E+02
  2.45114E+02  2.29064E+02  1.97561E+02
  2.45186E+02  2.29094E+02  1.97567E+02
  2.45287E+02  2.29124E+02  1.97578E+02
  2.45375E+02  2.29154E+02  1.97587E+02
  2.45453E+02  2.29184E+02  1.97596E+02
  2.45522E+02  2.29214E+02  1.97603E+02
  2.45590E+02  2.29244E+02  1.97609E+02
  2.45712E+02  2.29274E+02  1.97619E+02
  2.45836E+02  2.29304E+02  1.97629E+02
  2.45944E+02  2.29334E+02  1.97638E+02
  2.46038E+02  2.29364E+02  1.97646E+02
  2.46121E+02  2.29394E+02  1.97653E+02
  2.46192E+02  2.29425E+02  1.97658E+02
  2.46255E+02  2.29455E+02  1.97663E+02
  2.46309E+02  2.29485E+02  1.97668E+02
  2.46357E+02  2.29515E+02  1.97672E+02
  2.46398E+02  2.29544E+02  1.97675E+02
  2.46434E+02  2.29574E+02  1.97678E+02
  2.46465E+02  2.29604E+02  1.97680E+02
  2.46493E+02  2.29633E+02  1.97682E+02
  2.46517E+02  2.29663E+02  1.97684E+02
  2.46537E+02  2.29692E+02  1.97686E+02
  2.46556E+02  2.29721E+02  1.97687E+02
  2.46572E+02  2.29751E+02  1.97688E+02
  2.46585E+02  2.29779E+02  1.97691E+02
  2.46599E+02  2.29808E+02  1.97693E+02
  2.46620E+02  2.29837E+02  1.97697E+02
  2.46692E+02  2.29867E+02  1.97707E+02
  2.46755E+02  2.29899E+02  1.97716E+02
  2.46810E+02  2.29932E+02  1.97723E+02
  2.46859E+02  2.29965E+02  1.97730E+02
  2.46932E+02  2.30000E+02  1.97736E+02
  2.46997E+02  2.30036E+02  1.97742E+02
  2.47053E+02  2.30072E+02  1.97747E+02
  2.47145E+02  2.30111E+02  1.97757E+02
  2.47255E+02  2.30154E+02  1.97768E+02
  2.47365E+02  2.30204E+02  1.97783E+02
  2.47462E+02  2.30257E+02  1.97796E+02
  2.47548E+02  2.30310E+02  1.97808E+02
  2.47622E+02  2.30362E+02  1.97818E+02
  2.47687E+02  2.30412E+02  1.97827E+02
  2.47742E+02  2.30459E+02  1.97835E+02
  2.47790E+02  2.30505E+02  1.97841E+02
  2.47831E+02  2.30550E+02  1.97847E+02
  2.47866E+02  2.30592E+02  1.97852E+02
  2.47896E+02  2.30634E+02  1.97856E+02
  2.47921E+02  2.30674E+02  1.97860E+02
  2.47943E+02  2.30713E+02  1.97864E+02
  2.47961E+02  2.30751E+02  1.97866E+02
  2.47977E+02  2.30789E+02  1.97869E+02
  2.47990E+02  2.30825E+02  1.97871E+02
  2.48001E+02  2.30861E+02  1.97873E+02
  2.48010E+02  2.30896E+02  1.97874E+02
  2.48017E+02  2.30930E+02  1.97876E+02
  2.48023E+02  2.30964E+02  1.97877E+02
  2.48028E+02  2.30997E+02  1.97878E+02
  2.48032E+02  2.31030E+02  1.97879E+02
  2.48036E+02  2.31062E+02  1.97879E+02
  2.48038E+02  2.31094E+02  1.97880E+02
  2.48040E+02  2.31126E+02  1.97880E+02
  2.48041E+02  2.31157E+02  1.97881E+02
  2.48042E+02  2.31188E+02  1.97881E+02
  2.48043E+02  2.31219E+02  1.97881E+02
  2.48044E+02  2.31249E+02  1.97882E+02
  2.48044E+02  2.31279E+02  1.97882E+02
  2.48044E+02  2.31308E+02  1.97882E+02
  2.48044E+02  2.31338E+02  1.97882E+02
  2.48044E+02  2.31367E+02  1.97882E+02
  2.48044E+02  2.31395E+02  1.97882E+02
  2.48044E+02  2.31424E+02  1.97882E+02
  2.48044E+02  2.31452E+02  1.97882E+02
  2.48044E+02  2.31480E+02  1.97881E+02
  2.48043E+02  2.31508E+02  1.97881E+02
  2.48043E+02  2.31536E+02  1.97881E+02
  2.48044E+02  2.31563E+02  1.97881E+02
  2.48044E+02  2.31591E+02  1.97881E+02
  2.48044E+02  2.31618E+02  1.97881E+02
  2.48044E+02  2.31645E+02  1.97880E+02
  2.48045E+02  2.31671E+02  1.97880E+02
  2.48045E+02  2.31698E+02  1.97880E+02
  2.48046E+02  2.31724E+02  1.97880E+02
  2.48046E+02  2.31750E+02  1.97880E+02
  2.48047E+02  2.31776E+02  1.97879E+02
  2.48048E+02  2.31802E+02  1.97879E+02
  2.48049E+02  2.31828E+02  1.97879E+02
  2.48050E+02  2.31853E+02  1.97879E+02
  2.48051E+02  2.31879E+02  1.97878E+02
  2.48053E+02  2.31904E+02  1.97878E+02
  2.48054E+02  2.31929E+02  1.97878E+02
  2.48056E+02  2.31954E+02  1.97878E+02
  2.48057E+02  2.31978E+02  1.97877E+02
  2.48059E+02  2.32003E+02  1.97877E+02
  2.48061E+02  2.32027E+02  1.97877E+02
  2.48063E+02  2.32052E+02  1.97877E+02
  2.48065E+02  2.32076E+02  1.97876E+02
  2.48067E+02  2.32100E+02  1.97876E+02
  2.48070E+02  2.32123E+02  1.97876E+02
  2.48072E+02  2.32147E+02  1.97876E+02
  2.48089E+02  2.32171E+02  1.97877E+02
  2.48104E+02  2.32194E+02  1.97877E+02
  2.48118E+02  2.32217E+02  1.97878E+02
  2.48130E+02  2.32241E+02  1.97879E+02
  2.48141E+02  2.32264E+02  1.97879E+02
  2.48151E+02  2.32287E+02  1.97879E+02
  2.48160E+02  2.32310E+02  1.97880E+02
  2.48168E+02  2.32332E+02  1.97880E+02
  2.48176E+02  2.32355E+02  1.97880E+02
  2.48183E+02  2.32378E+02  1.97880E+02
  2.48189E+02  2.32400E+02  1.97880E+02
  2.48195E+02  2.32423E+02  1.97880E+02
  2.48201E+02  2.32445E+02  1.97880E+02
  2.48206E+02  2.32467E+02  1.97880E+02
  2.48212E+02  2.32489E+02  1.97880E+02
  2.48216E+02  2.32511E+02  1.97880E+02
  2.48221E+02  2.32533E+02  1.97880E+02
  2.48226E+02  2.32555E+02  1.97880E+02
  2.48230E+02  2.32577E+02  1.97880E+02
  2.48235E+02  2.32598E+02  1.97880E+02
  2.48247E+02  2.32620E+02  1.97882E+02
  2.48257E+02  2.32641E+02  1.97885E+02
  2.48267E+02  2.32662E+02  1.97887E+02
  2.48301E+02  2.32683E+02  1.97893E+02
  2.48330E+02  2.32704E+02  1.97899E+02
  2.48357E+02  2.32726E+02  1.97904E+02
  2.48380E+02  2.32747E+02  1.97909E+02
  2.48400E+02  2.32768E+02  1.97912E+02
  2.48419E+02  2.32789E+02  1.97916E+02
  2.48435E+02  2.32810E+02  1.97918E+02
  2.48449E+02  2.32830E+02  1.97921E+02
  2.48462E+02  2.32851E+02  1.97923E+02
  2.48474E+02  2.32872E+02  1.97925E+02
  2.48485E+02  2.32892E+02  1.97926E+02
  2.48494E+02  2.32913E+02  1.97928E+02
  2.48503E+02  2.32934E+02  1.97929E+02
  2.48511E+02  2.32954E+02  1.97930E+02
  2.48519E+02  2.32974E+02  1.97931E+02
  2.48526E+02  2.32995E+02  1.97931E+02
  2.48532E+02  2.33015E+02  1.97932E+02
  2.48538E+02  2.33035E+02  1.97932E+02
  2.48544E+02  2.33055E+02  1.97933E+02
  2.48550E+02  2.33075E+02  1.97933E+02
  2.48555E+02  2.33094E+02  1.97933E+02
  2.48560E+02  2.33114E+02  1.97933E+02
  2.48565E+02  2.33134E+02  1.97933E+02
  2.48570E+02  2.33153E+02  1.97934E+02
  2.48574E+02  2.33173E+02  1.97934E+02
  2.48579E+02  2.33192E+02  1.97934E+02
  2.48583E+02  2.33211E+02  1.97934E+02
  2.48588E+02  2.33230E+02  1.97933E+02
  2.48592E+02  2.33250E+02  1.97933E+02
  2.48597E+02  2.33268E+02  1.97933E+02
  2.48601E+02  2.33287E+02  1.97933E+02
  2.48606E+02  2.33306E+02  1.97933E+02
  2.48610E+02  2.33325E+02  1.97933E+02
  2.48614E+02  2.33344E+02  1.97933E+02
  2.48619E+02  2.33362E+02  1.97932E+02
  2.48623E+02  2.33381E+02  1.97932E+02
  2.48628E+02  2.33399E+02  1.97932E+02
  2.48632E+02  2.33417E+02  1.97932E+02
  2.48637E+02  2.33435E+02  1.97932E+02
  2.48641E+02  2.33454E+02  1.97931E+02
  2.48646E+02  2.33472E+02  1.97931E+02
  2.48650E+02  2.33490E+02  1.97931E+02
  2.48655E+02  2.33508E+02  1.97931E+02
  2.48660E+02  2.33526E+02  1.97930E+02
  2.48664E+02  2.33543E+02  1.97930E+02
  2.48669E+02  2.33561E+02  1.97930E+02
  2.48697E+02  2.33579E+02  1.97933E+02
  2.48782E+02  2.33597E+02  1.97944E+02
  2.48870E+02  2.33614E+02  1.97955E+02
  2.48946E+02  2.33632E+02  1.97965E+02
  2.49013E+02  2.33651E+02  1.97973E+02
  2.49071E+02  2.33669E+02  1.97981E+02
  2.49121E+02  2.33687E+02  1.97987E+02
  2.49165E+02  2.33705E+02  1.97993E+02
  2.49204E+02  2.33724E+02  1.97998E+02
  2.49237E+02  2.33742E+02  1.98002E+02
  2.49267E+02  2.33760E+02  1.98006E+02
  2.49292E+02  2.33778E+02  1.98009E+02
  2.49315E+02  2.33797E+02  1.98011E+02
  2.49334E+02  2.33815E+02  1.98014E+02
  2.49352E+02  2.33833E+02  1.98016E+02
  2.49367E+02  2.33851E+02  1.98018E+02
  2.49380E+02  2.33869E+02  1.98019E+02
  2.49392E+02  2.33887E+02  1.98020E+02
  2.49402E+02  2.33905E+02  1.98022E+02
  2.49411E+02  2.33923E+02  1.98022E+02
  2.49420E+02  2.33941E+02  1.98023E+02
  2.49427E+02  2.33958E+02  1.98024E+02
  2.49434E+02  2.33976E+02  1.98024E+02
  2.49440E+02  2.33994E+02  1.98025E+02
  2.49445E+02  2.34011E+02  1.98025E+02
  2.49476E+02  2.34029E+02  1.98031E+02
  2.49503E+02  2.34046E+02  1.98036E+02
  2.49527E+02  2.34064E+02  1.98041E+02
  2.49547E+02  2.34081E+02  1.98045E+02
  2.49566E+02  2.34098E+02  1.98048E+02
  2.49582E+02  2.34116E+02  1.98051E+02
  2.49596E+02  2.34133E+02  1.98054E+02
  2.49609E+02  2.34150E+02  1.98056E+02
  2.49620E+02  2.34167E+02  1.98058E+02
  2.49630E+02  2.34184E+02  1.98060E+02
  2.49639E+02  2.34202E+02  1.98061E+02
  2.49647E+02  2.34219E+02  1.98062E+02
  2.49655E+02  2.34236E+02  1.98063E+02
  2.49661E+02  2.34252E+02  1.98064E+02
  2.49668E+02  2.34269E+02  1.98065E+02
  2.49673E+02  2.34286E+02  1.98066E+02
  2.49679E+02  2.34303E+02  1.98066E+02
  2.49684E+02  2.34319E+02  1.98066E+02
  2.49689E+02  2.34336E+02  1.98067E+02
  2.49693E+02  2.34353E+02  1.98067E+02
  2.49697E+02  2.34369E+02  1.98067E+02
  2.49702E+02  2.34385E+02  1.98067E+02
  2.49706E+02  2.34402E+02  1.98067E+02
  2.49710E+02  2.34418E+02  1.98067E+02
  2.49714E+02  2.34434E+02  1.98067E+02
  2.49718E+02  2.34450E+02  1.98067E+02
  2.49722E+02  2.34466E+02  1.98067E+02
  2.49726E+02  2.34482E+02  1.98067E+02
  2.49730E+02  2.34498E+02  1.98067E+02
  2.49734E+02  2.34514E+02  1.98067E+02
  2.49737E+02  2.34530E+02  1.98067E+02
  2.49741E+02  2.34545E+02  1.98067E+02
  2.49772E+02  2.34561E+02  1.98076E+02
  2.49799E+02  2.34577E+02  1.98083E+02
  2.49823E+02  2.34592E+02  1.98090E+02
  2.49845E+02  2.34608E+02  1.98096E+02
  2.49864E+02  2.34624E+02  1.98101E+02
  2.49881E+02  2.34639E+02  1.98106E+02
  2.49896E+02  2.34655E+02  1.98110E+02
  2.49909E+02  2.34670E+02  1.98113E+02
  2.49922E+02  2.34686E+02  1.98116E+02
  2.49933E+02  2.34701E+02  1.98119E+02
  2.49943E+02  2.34717E+02  1.98121E+02
  2.49952E+02  2.34732E+02  1.98123E+02
  2.49961E+02  2.34747E+02  1.98124E+02
  2.49969E+02  2.34763E+02  1.98126E+02
  2.49977E+02  2.34778E+02  1.98127E+02
  2.49984E+02  2.34793E+02  1.98128E+02
  2.49990E+02  2.34808E+02  1.98129E+02
  2.49996E+02  2.34823E+02  1.98129E+02
  2.50002E+02  2.34838E+02  1.98130E+02
  2.50008E+02  2.34853E+02  1.98130E+02
  2.50014E+02  2.34867E+02  1.98131E+02
  2.50019E+02  2.34882E+02  1.98131E+02
  2.50025E+02  2.34897E+02  1.98131E+02
  2.50030E+02  2.34912E+02  1.98132E+02
  2.50035E+02  2.34926E+02  1.98132E+02
  2.50040E+02  2.34941E+02  1.98132E+02
  2.50045E+02  2.34955E+02  1.98132E+02
  2.50050E+02  2.34970E+02  1.98132E+02
  2.50055E+02  2.34984E+02  1.98132E+02
  2.50060E+02  2.34998E+02  1.98132E+02
  2.50080E+02  2.35013E+02  1.98137E+02
  2.50099E+02  2.35027E+02  1.98142E+02
  2.50115E+02  2.35041E+02  1.98146E+02
  2.50130E+02  2.35055E+02  1.98150E+02
  2.50144E+02  2.35070E+02  1.98153E+02
  2.50156E+02  2.35084E+02  1.98156E+02
  2.50168E+02  2.35098E+02  1.98158E+02
  2.50178E+02  2.35112E+02  1.98160E+02
  2.50188E+02  2.35126E+02  1.98162E+02
  2.50197E+02  2.35140E+02  1.98164E+02
  2.50205E+02  2.35154E+02  1.98165E+02
  2.50213E+02  2.35168E+02  1.98166E+02
  2.50221E+02  2.35182E+02  1.98167E+02
  2.50228E+02  2.35196E+02  1.98168E+02
  2.50235E+02  2.35209E+02  1.98168E+02
  2.50242E+02  2.35223E+02  1.98169E+02
  2.50248E+02  2.35237E+02  1.98169E+02
  2.50254E+02  2.35251E+02  1.98170E+02
  2.50260E+02  2.35264E+02  1.98170E+02
  2.50266E+02  2.35278E+02  1.98170E+02
  2.50272E+02  2.35291E+02  1.98170E+02
  2.50278E+02  2.35305E+02  1.98170E+02
  2.50284E+02  2.35318E+02  1.98170E+02
  2.50289E+02  2.35331E+02  1.98170E+02
  2.50295E+02  2.35345E+02  1.98170E+02
  2.50300E+02  2.35358E+02  1.98170E+02
  2.50306E+02  2.35371E+02  1.98170E+02
  2.50312E+02  2.35385E+02  1.98170E+02
  2.50317E+02  2.35398E+02  1.98170E+02
  2.50323E+02  2.35411E+02  1.98170E+02
  2.50328E+02  2.35424E+02  1.98170E+02
  2.50334E+02  2.35437E+02  1.98170E+02
  2.50339E+02  2.35450E+02  1.98169E+02
  2.50345E+02  2.35463E+02  1.98169E+02
  2.50350E+02  2.35476E+02  1.98169E+02
  2.50356E+02  2.35489E+02  1.98169E+02
  2.50362E+02  2.35502E+02  1.98169E+02
  2.50367E+02  2.35514E+02  1.98168E+02
  2.50373E+02  2.35527E+02  1.98168E+02
  2.50379E+02  2.35540E+02  1.98168E+02
  2.50384E+02  2.35553E+02  1.98168E+02
  2.50390E+02  2.35565E+02  1.98167E+02
  2.50396E+02  2.35578E+02  1.98167E+02
  2.50402E+02  2.35590E+02  1.98167E+02
  2.50407E+02  2.35603E+02  1.98167E+02
  2.50413E+02  2.35615E+02  1.98167E+02
  2.50419E+02  2.35628E+02  1.98166E+02
  2.50425E+02  2.35640E+02  1.98166E+02
  2.50431E+02  2.35653E+02  1.98166E+02
  2.50437E+02  2.35665E+02  1.98166E+02
  2.50443E+02  2.35677E+02  1.98165E+02
  2.50449E+02  2.35690E+02  1.98165E+02
  2.50455E+02  2.35702E+02  1.98165E+02
  2.50461E+02  2.35714E+02  1.98165E+02
  2.50467E+02  2.35726E+02  1.98164E+02
  2.50473E+02  2.35738E+02  1.98164E+02
  2.50479E+02  2.35750E+02  1.98164E+02
  2.50485E+02  2.35762E+02  1.98164E+02
  2.50491E+02  2.35774E+02  1.98163E+02
  2.50497E+02  2.35787E+02  1.98163E+02
  2.50503E+02  2.35798E+02  1.98163E+02
  2.50510E+02  2.35810E+02  1.98163E+02
  2.50516E+02  2.35822E+02  1.98162E+02
  2.50522E+02  2.35834E+02  1.98162E+02
  2.50528E+02  2.35846E+02  1.98162E+02
  2.50534E+02  2.35858E+02  1.98161E+02
  2.50540E+02  2.35870E+02  1.98161E+02
  2.50547E+02  2.35881E+02  1.98161E+02
  2.50553E+02  2.35893E+02  1.98161E+02
  2.50559E+02  2.35905E+02  1.98160E+02
  2.50565E+02  2.35916E+02  1.98160E+02
  2.50572E+02  2.35928E+02  1.98160E+02
  2.50578E+02  2.35940E+02  1.98160E+02
  2.50584E+02  2.35951E+02  1.98159E+02
  2.50591E+02  2.35963E+02  1.98159E+02
  2.50597E+02  2.35974E+02  1.98159E+02
  2.50603E+02  2.35986E+02  1.98159E+02
  2.50609E+02  2.35997E+02  1.98158E+02
  2.50616E+02  2.36009E+02  1.98158E+02
  2.50622E+02  2.36020E+02  1.98158E+02
  2.50628E+02  2.36031E+02  1.98158E+02
  2.50635E+02  2.36043E+02  1.98157E+02
  2.50641E+02  2.36054E+02  1.98157E+02
  2.50647E+02  2.36065E+02  1.98157E+02
  2.50654E+02  2.36076E+02  1.98157E+02
  2.50660E+02  2.36088E+02  1.98156E+02
  2.50666E+02  2.36099E+02  1.98156E+02
  2.50673E+02  2.36110E+02  1.98156E+02
  2.50679E+02  2.36121E+02  1.98156E+02
  2.50685E+02  2.36132E+02  1.98155E+02
  2.50692E+02  2.36143E+02  1.98155E+02
  2.50698E+02  2.36154E+02  1.98155E+02
  2.50704E+02  2.36165E+02  1.98155E+02
  2.50711E+02  2.36176E+02  1.98154E+02
  2.50717E+02  2.36187E+02  1.98154E+02
  2.50723E+02  2.36198E+02  1.98154E+02
  2.50730E+02  2.36209E+02  1.98154E+02
  2.50736E+02  2.36220E+02  1.98153E+02
  2.50742E+02  2.36231E+02  1.98153E+02
  2.50749E+02  2.36242E+02  1.98153E+02
  2.50755E+02  2.36253E+02  1.98152E+02
  2.50761E+02  2.36264E+02  1.98152E+02
  2.50768E+02  2.36274E+02  1.98152E+02
  2.50774E+02  2.36285E+02  1.98152E+02
  2.50780E+02  2.36296E+02  1.98151E+02
  2.50787E+02  2.36307E+02  1.98151E+02
  2.50793E+02  2.36317E+02  1.98151E+02
  2.50799E+02  2.36328E+02  1.98151E+02
  2.50806E+02  2.36339E+02  1.98150E+02
  2.50812E+02  2.36349E+02  1.98150E+02
  2.50818E+02  2.36360E+02  1.98150E+02
  2.50825E+02  2.36370E+02  1.98150E+02
  2.50831E+02  2.36381E+02  1.98149E+02
  2.50837E+02  2.36391E+02  1.98149E+02
  2.50843E+02  2.36402E+02  1.98149E+02
  2.50850E+02  2.36412E+02  1.98149E+02
  2.50856E+02  2.36423E+02  1.98148E+02
  2.50862E+02  2.36433E+02  1.98148E+02
  2.50868E+02  2.36443E+02  1.98148E+02
  2.50875E+02  2.36454E+02  1.98148E+02
  2.50881E+02  2.36464E+02  1.98147E+02
  2.50887E+02  2.36474E+02  1.98147E+02
  2.50893E+02  2.36485E+02  1.98147E+02
  2.50900E+02  2.36495E+02  1.98147E+02
  2.50906E+02  2.36505E+02  1.98146E+02
  2.50912E+02  2.36516E+02  1.98146E+02
  2.50918E+02  2.36526E+02  1.98146E+02
  2.50925E+02  2.36536E+02  1.98146E+02
  2.50931E+02  2.36546E+02  1.98145E+02
  2.50937E+02  2.36556E+02  1.98145E+02
  2.50943E+02  2.36566E+02  1.98145E+02
  2.50949E+02  2.36576E+02  1.98145E+02
  2.50956E+02  2.36587E+02  1.98144E+02
  2.50962E+02  2.36597E+02  1.98144E+02
  2.50968E+02  2.36607E+02  1.98144E+02
  2.50974E+02  2.36617E+02  1.98143E+02
  2.50980E+02  2.36627E+02  1.98143E+02
  2.50986E+02  2.36637E+02  1.98143E+02
  2.50992E+02  2.36647E+02  1.98143E+02
  2.50999E+02  2.36656E+02  1.98142E+02
  2.51005E+02  2.36666E+02  1.98142E+02
  2.51011E+02  2.36676E+02  1.98142E+02
  2.51017E+02  2.36686E+02  1.98142E+02
  2.51023E+02  2.36696E+02  1.98141E+02
  2.51029E+02  2.36706E+02  1.98141E+02
  2.51035E+02  2.36716E+02  1.98141E+02
  2.51041E+02  2.36725E+02  1.98141E+02
  2.51047E+02  2.36735E+02  1.98140E+02
  2.51053E+02  2.36745E+02  1.98140E+02
  2.51060E+02  2.36755E+02  1.98140E+02
  2.51066E+02  2.36764E+02  1.98140E+02
  2.51072E+02  2.36774E+02  1.98139E+02
  2.51078E+02  2.36784E+02  1.98139E+02
  2.51084E+02  2.36793E+02  1.98139E+02
  2.51090E+02  2.36803E+02  1.98139E+02
  2.51096E+02  2.36812E+02  1.98138E+02
  2.51102E+02  2.36822E+02  1.98138E+02
  2.51108E+02  2.36831E+02  1.98138E+02
  2.51114E+02  2.36841E+02  1.98138E+02
  2.51134E+02  2.36851E+02  1.98138E+02
  2.51152E+02  2.36860E+02  1.98139E+02
  2.51168E+02  2.36870E+02  1.98139E+02
  2.51183E+02  2.36879E+02  1.98140E+02
  2.51197E+02  2.36889E+02  1.98140E+02
  2.51209E+02  2.36898E+02  1.98140E+02
  2.51221E+02  2.36908E+02  1.98140E+02
  2.51232E+02  2.36917E+02  1.98141E+02
  2.51242E+02  2.36927E+02  1.98141E+02
  2.51252E+02  2.36937E+02  1.98141E+02
  2.51261E+02  2.36946E+02  1.98141E+02
  2.51269E+02  2.36956E+02  1.98141E+02
  2.51277E+02  2.36965E+02  1.98141E+02
  2.51285E+02  2.36975E+02  1.98140E+02
  2.51292E+02  2.36984E+02  1.98140E+02
  2.51299E+02  2.36994E+02  1.98140E+02
  2.51306E+02  2.37003E+02  1.98140E+02
  2.51313E+02  2.37013E+02  1.98140E+02
  2.51320E+02  2.37022E+02  1.98140E+02
  2.51326E+02  2.37031E+02  1.98140E+02
  2.51332E+02  2.37041E+02  1.98139E+02
  2.51338E+02  2.37050E+02  1.98139E+02
  2.51344E+02  2.37060E+02  1.98139E+02
  2.51350E+02  2.37069E+02  1.98139E+02
  2.51356E+02  2.37078E+02  1.98139E+02
  2.51362E+02  2.37087E+02  1.98138E+02
  2.51368E+02  2.37097E+02  1.98138E+02
  2.51373E+02  2.37106E+02  1.98138E+02
  2.51379E+02  2.37115E+02  1.98138E+02
  2.51385E+02  2.37124E+02  1.98137E+02
  2.51390E+02  2.37134E+02  1.98137E+02
  2.51396E+02  2.37143E+02  1.98137E+02
  2.51401E+02  2.37152E+02  1.98137E+02
  2.51407E+02  2.37161E+02  1.98136E+02
  2.51412E+02  2.37170E+02  1.98136E+02
  2.51418E+02  2.37179E+02  1.98136E+02
  2.51423E+02  2.37188E+02  1.98136E+02
  2.51429E+02  2.37197E+02  1.98135E+02
  2.51434E+02  2.37207E+02  1.98135E+02
  2.51440E+02  2.37216E+02  1.98135E+02
  2.51445E+02  2.37225E+02  1.98135E+02
  2.51451E+02  2.37234E+02  1.98134E+02
  2.51456E+02  2.37242E+02  1.98134E+02
  2.51462E+02  2.37251E+02  1.98134E+02
  2.51467E+02  2.37260E+02  1.98134E+02
  2.51472E+02  2.37269E+02  1.98133E+02
  2.51478E+02  2.37278E+02  1.98133E+02
  2.51485E+02  2.37287E+02  1.98133E+02
  2.51511E+02  2.37296E+02  1.98133E+02
  2.51535E+02  2.37305E+02  1.98133E+02
  2.51556E+02  2.37314E+02  1.98133E+02
  2.51574E+02  2.37323E+02  1.98133E+02
  2.51591E+02  2.37331E+02  1.98133E+02
  2.51607E+02  2.37340E+02  1.98133E+02
  2.51621E+02  2.37349E+02  1.98132E+02
  2.51634E+02  2.37358E+02  1.98132E+02
  2.51645E+02  2.37367E+02  1.98132E+02
  2.51656E+02  2.37376E+02  1.98132E+02
  2.51666E+02  2.37385E+02  1.98132E+02
  2.51675E+02  2.37394E+02  1.98132E+02
  2.51684E+02  2.37403E+02  1.98131E+02
  2.51692E+02  2.37412E+02  1.98131E+02
  2.51700E+02  2.37421E+02  1.98131E+02
  2.51707E+02  2.37430E+02  1.98131E+02
  2.51714E+02  2.37439E+02  1.98131E+02
  2.51721E+02  2.37448E+02  1.98130E+02
  2.51727E+02  2.37457E+02  1.98130E+02
  2.51733E+02  2.37466E+02  1.98130E+02
  2.51739E+02  2.37474E+02  1.98130E+02
  2.51745E+02  2.37483E+02  1.98129E+02
  2.51751E+02  2.37492E+02  1.98129E+02
  2.51756E+02  2.37501E+02  1.98129E+02
  2.51762E+02  2.37510E+02  1.98129E+02
  2.51767E+02  2.37518E+02  1.98128E+02
  2.51772E+02  2.37527E+02  1.98128E+02
  2.51777E+02  2.37536E+02  1.98128E+02
  2.51783E+02  2.37544E+02  1.98128E+02
  2.51788E+02  2.37553E+02  1.98127E+02
  2.51793E+02  2.37562E+02  1.98127E+02
  2.51798E+02  2.37570E+02  1.98127E+02
  2.51803E+02  2.37579E+02  1.98127E+02
  2.51808E+02  2.37588E+02  1.98126E+02
  2.51813E+02  2.37596E+02  1.98126E+02
  2.51818E+02  2.37605E+02  1.98126E+02
  2.51823E+02  2.37613E+02  1.98126E+02
  2.51828E+02  2.37622E+02  1.98125E+02
  2.51833E+02  2.37630E+02  1.98125E+02
  2.51838E+02  2.37639E+02  1.98125E+02
  2.51843E+02  2.37647E+02  1.98125E+02
  2.51848E+02  2.37656E+02  1.98124E+02
  2.51853E+02  2.37664E+02  1.98131E+02
  2.51858E+02  2.37672E+02  1.98137E+02
  2.51863E+02  2.37681E+02  1.98142E+02
  2.51868E+02  2.37689E+02  1.98146E+02
  2.51873E+02  2.37697E+02  1.98150E+02
  2.51879E+02  2.37706E+02  1.98154E+02
  2.51884E+02  2.37714E+02  1.98156E+02
  2.51889E+02  2.37722E+02  1.98159E+02
  2.51894E+02  2.37731E+02  1.98161E+02
  2.51899E+02  2.37739E+02  1.98163E+02
  2.51904E+02  2.37747E+02  1.98164E+02
  2.51909E+02  2.37755E+02  1.98166E+02
  2.51915E+02  2.37763E+02  1.98167E+02
  2.51920E+02  2.37772E+02  1.98168E+02
  2.51925E+02  2.37780E+02  1.98169E+02
  2.51930E+02  2.37788E+02  1.98169E+02
  2.51935E+02  2.37796E+02  1.98170E+02
  2.51940E+02  2.37804E+02  1.98171E+02
  2.51946E+02  2.37812E+02  1.98171E+02
  2.51951E+02  2.37820E+02  1.98171E+02
  2.51956E+02  2.37828E+02  1.98171E+02
  2.51961E+02  2.37836E+02  1.98172E+02
  2.51967E+02  2.37844E+02  1.98172E+02
  2.51972E+02  2.37852E+02  1.98172E+02
  2.51977E+02  2.37860E+02  1.98172E+02
  2.51982E+02  2.37868E+02  1.98172E+02
  2.51988E+02  2.37876E+02  1.98172E+02
  2.51993E+02  2.37884E+02  1.98172E+02
  2.51998E+02  2.37892E+02  1.98172E+02
  2.52003E+02  2.37900E+02  1.98172E+02
  2.52009E+02  2.37908E+02  1.98171E+02
  2.52014E+02  2.37916E+02  1.98171E+02
  2.52019E+02  2.37924E+02  1.98171E+02
  2.52025E+02  2.37932E+02  1.98171E+02
  2.52030E+02  2.37940E+02  1.98171E+02
  2.52035E+02  2.37947E+02  1.98171E+02
  2.52040E+02  2.37955E+02  1.98170E+02
  2.52046E+02  2.37963E+02  1.98170E+02
  2.52051E+02  2.37971E+02  1.98170E+02
  2.52056E+02  2.37979E+02  1.98170E+02
  2.52062E+02  2.37986E+02  1.98169E+02
  2.52067E+02  2.37994E+02  1.98169E+02
  2.52072E+02  2.38002E+02  1.98169E+02
  2.52078E+02  2.38010E+02  1.98169E+02
  2.52083E+02  2.38017E+02  1.98169E+02
  2.52088E+02  2.38025E+02  1.98168E+02
  2.52094E+02  2.38033E+02  1.98168E+02
  2.52099E+02  2.38040E+02  1.98168E+02
  2.52104E+02  2.38048E+02  1.98168E+02
  2.52110E+02  2.38056E+02  1.98167E+02
  2.52115E+02  2.38063E+02  1.98167E+02
  2.52120E+02  2.38071E+02  1.98167E+02
  2.52125E+02  2.38078E+02  1.98167E+02
  2.52131E+02  2.38086E+02  1.98166E+02
  2.52136E+02  2.38093E+02  1.98166E+02
  2.52141E+02  2.38101E+02  1.98166E+02
  2.52147E+02  2.38109E+02  1.98166E+02
  2.52152E+02  2.38116E+02  1.98165E+02
  2.52157E+02  2.38124E+02  1.98165E+02
  2.52163E+02  2.38131E+02  1.98165E+02
  2.52168E+02  2.38139E+02  1.98165E+02
  2.52173E+02  2.38146E+02  1.98164E+02
  2.52179E+02  2.38153E+02  1.98164E+02
  2.52184E+02  2.38161E+02  1.98164E+02
  2.52189E+02  2.38168E+02  1.98164E+02
  2.52195E+02  2.38176E+02  1.98163E+02
  2.52200E+02  2.38183E+02  1.98163E+02
  2.52205E+02  2.38191E+02  1.98163E+02
  2.52211E+02  2.38198E+02  1.98163E+02
  2.52216E+02  2.38205E+02  1.98162E+02
  2.52221E+02  2.38213E+02  1.98162E+02
  2.52226E+02  2.38220E+02  1.98162E+02
  2.52232E+02  2.38227E+02  1.98162E+02
  2.52237E+02  2.38235E+02  1.98161E+02
  2.52242E+02  2.38242E+02  1.98161E+02
  2.52248E+02  2.38249E+02  1.98161E+02
  2.52253E+02  2.38256E+02  1.98161E+02
  2.52258E+02  2.38264E+02  1.98160E+02
  2.52264E+02  2.38271E+02  1.98160E+02
  2.52269E+02  2.38278E+02  1.98160E+02
  2.52278E+02  2.38285E+02  1.98160E+02
  2.52287E+02  2.38293E+02  1.98161E+02
  2.52296E+02  2.38300E+02  1.98161E+02
  2.52304E+02  2.38307E+02  1.98162E+02
  2.52312E+02  2.38314E+02  1.98163E+02
  2.52319E+02  2.38322E+02  1.98164E+02
  2.52326E+02  2.38329E+02  1.98165E+02
  2.52333E+02  2.38336E+02  1.98166E+02
  2.52340E+02  2.38343E+02  1.98168E+02
  2.52346E+02  2.38350E+02  1.98169E+02
  2.52352E+02  2.38358E+02  1.98170E+02
  2.52358E+02  2.38365E+02  1.98170E+02
  2.52371E+02  2.38372E+02  1.98175E+02
  2.52383E+02  2.38379E+02  1.98180E+02
  2.52394E+02  2.38386E+02  1.98184E+02
  2.52405E+02  2.38393E+02  1.98187E+02
  2.52414E+02  2.38401E+02  1.98190E+02
  2.52423E+02  2.38408E+02  1.98193E+02
  2.52431E+02  2.38415E+02  1.98197E+02
  2.52439E+02  2.38422E+02  1.98200E+02
  2.52447E+02  2.38429E+02  1.98204E+02
  2.52454E+02  2.38437E+02  1.98206E+02
  2.52460E+02  2.38444E+02  1.98209E+02
  2.52467E+02  2.38451E+02  1.98211E+02
  2.52473E+02  2.38458E+02  1.98213E+02
  2.52479E+02  2.38465E+02  1.98214E+02
  2.52485E+02  2.38472E+02  1.98215E+02
  2.52491E+02  2.38479E+02  1.98217E+02
  2.52496E+02  2.38486E+02  1.98217E+02
  2.52502E+02  2.38493E+02  1.98218E+02
  2.52507E+02  2.38501E+02  1.98219E+02
  2.52513E+02  2.38508E+02  1.98219E+02
  2.52518E+02  2.38515E+02  1.98220E+02
  2.52523E+02  2.38522E+02  1.98220E+02
  2.52528E+02  2.38529E+02  1.98221E+02
  2.52544E+02  2.38536E+02  1.98225E+02
  2.52559E+02  2.38543E+02  1.98229E+02
  2.52572E+02  2.38550E+02  1.98232E+02
  2.52584E+02  2.38557E+02  1.98234E+02
  2.52595E+02  2.38564E+02  1.98237E+02
  2.52625E+02  2.38571E+02  1.98239E+02
  2.52669E+02  2.38578E+02  1.98245E+02
  2.52707E+02  2.38585E+02  1.98250E+02
  2.52791E+02  2.38593E+02  1.98266E+02
  2.52865E+02  2.38600E+02  1.98280E+02
  2.52929E+02  2.38608E+02  1.98292E+02
  2.52984E+02  2.38616E+02  1.98302E+02
  2.53033E+02  2.38624E+02  1.98311E+02
  2.53075E+02  2.38632E+02  1.98319E+02
  2.53112E+02  2.38640E+02  1.98326E+02
  2.53168E+02  2.38648E+02  1.98335E+02
  2.53216E+02  2.38656E+02  1.98343E+02
  2.53258E+02  2.38664E+02  1.98350E+02
  2.53295E+02  2.38673E+02  1.98356E+02
  2.53326E+02  2.38681E+02  1.98362E+02
  2.53353E+02  2.38689E+02  1.98366E+02
  2.53377E+02  2.38698E+02  1.98370E+02
  2.53397E+02  2.38706E+02  1.98374E+02
  2.53415E+02  2.38715E+02  1.98377E+02
  2.53430E+02  2.38723E+02  1.98379E+02
  2.53444E+02  2.38732E+02  1.98382E+02
  2.53455E+02  2.38740E+02  1.98384E+02
  2.53465E+02  2.38749E+02  1.98385E+02
  2.53473E+02  2.38757E+02  1.98387E+02
  2.53481E+02  2.38766E+02  1.98388E+02
  2.53487E+02  2.38774E+02  1.98389E+02
  2.53493E+02  2.38782E+02  1.98390E+02
  2.53498E+02  2.38791E+02  1.98390E+02
  2.53502E+02  2.38799E+02  1.98391E+02
  2.53506E+02  2.38807E+02  1.98392E+02
  2.53509E+02  2.38816E+02  1.98392E+02
  2.53512E+02  2.38824E+02  1.98392E+02
  2.53515E+02  2.38832E+02  1.98393E+02
  2.53518E+02  2.38840E+02  1.98393E+02
  2.53520E+02  2.38848E+02  1.98393E+02
  2.53522E+02  2.38856E+02  1.98393E+02
  2.53524E+02  2.38865E+02  1.98393E+02
  2.53526E+02  2.38873E+02  1.98393E+02
  2.53528E+02  2.38881E+02  1.98393E+02
  2.53530E+02  2.38889E+02  1.98393E+02
  2.53532E+02  2.38897E+02  1.98393E+02
  2.53534E+02  2.38904E+02  1.98393E+02
  2.53536E+02  2.38912E+02  1.98393E+02
  2.53538E+02  2.38920E+02  1.98392E+02
  2.53540E+02  2.38928E+02  1.98392E+02
  2.53542E+02  2.38936E+02  1.98392E+02
  2.53544E+02  2.38944E+02  1.98392E+02
  2.53546E+02  2.38951E+02  1.98392E+02
  2.53548E+02  2.38959E+02  1.98392E+02
  2.53550E+02  2.38967E+02  1.98391E+02
  2.53552E+02  2.38974E+02  1.98391E+02
  2.53555E+02  2.38982E+02  1.98391E+02
  2.53557E+02  2.38990E+02  1.98391E+02
  2.53560E+02  2.38997E+02  1.98391E+02
  2.53562E+02  2.39005E+02  1.98390E+02
  2.53565E+02  2.39012E+02  1.98390E+02
  2.53568E+02  2.39020E+02  1.98390E+02
  2.53571E+02  2.39027E+02  1.98390E+02
  2.53573E+02  2.39035E+02  1.98389E+02
  2.53576E+02  2.39042E+02  1.98389E+02
  2.53579E+02  2.39050E+02  1.98389E+02
  2.53582E+02  2.39057E+02  1.98389E+02
  2.53586E+02  2.39064E+02  1.98388E+02
  2.53589E+02  2.39072E+02  1.98388E+02
  2.53592E+02  2.39079E+02  1.98388E+02
  2.53596E+02  2.39086E+02  1.98388E+02
  2.53599E+02  2.39094E+02  1.98387E+02
  2.53602E+02  2.39101E+02  1.98387E+02
  2.53606E+02  2.39108E+02  1.98387E+02
  2.53630E+02  2.39116E+02  1.98393E+02
  2.53696E+02  2.39123E+02  1.98405E+02
  2.53754E+02  2.39130E+02  1.98415E+02
  2.53805E+02  2.39138E+02  1.98423E+02
  2.53849E+02  2.39146E+02  1.98431E+02
  2.53887E+02  2.39154E+02  1.98438E+02
  2.53968E+02  2.39162E+02  1.98452E+02
  2.54039E+02  2.39170E+02  1.98465E+02
  2.54100E+02  2.39178E+02  1.98475E+02
  2.54153E+02  2.39186E+02  1.98485E+02
  2.54199E+02  2.39195E+02  1.98493E+02
  2.54301E+02  2.39206E+02  1.98509E+02
  2.54390E+02  2.39219E+02  1.98523E+02
  2.54469E+02  2.39234E+02  1.98536E+02
  2.54537E+02  2.39250E+02  1.98546E+02
  2.54596E+02  2.39265E+02  1.98556E+02
  2.54648E+02  2.39280E+02  1.98564E+02
  2.54692E+02  2.39295E+02  1.98571E+02
  2.54730E+02  2.39310E+02  1.98577E+02
  2.54763E+02  2.39324E+02  1.98582E+02
  2.54808E+02  2.39339E+02  1.98588E+02
  2.54902E+02  2.39357E+02  1.98598E+02
  2.55039E+02  2.39381E+02  1.98615E+02
  2.55160E+02  2.39408E+02  1.98632E+02
  2.55265E+02  2.39437E+02  1.98647E+02
  2.55357E+02  2.39466E+02  1.98661E+02
  2.55510E+02  2.39508E+02  1.98681E+02
  2.55672E+02  2.39562E+02  1.98702E+02