 Groundwater/Surface Water exchange (L3/T)
 for each MODFLOW River Cell
 Positive: River water seeps to the aquifer
 Negative: Groundwater flows from aquifer to river
 
 Day:           1
 Layer, Row, Column, Flow Rate
           1          25          17  0.0000000E+00
           1          25          18  0.0000000E+00
           1          26          18  0.0000000E+00
           1          26          19  0.0000000E+00
           1          27          19  0.0000000E+00
           1          27          20  0.0000000E+00
           1          28          20  0.0000000E+00
           1          28          21  0.0000000E+00
           1          29          21  0.0000000E+00
           1          29          22  0.0000000E+00
           1          30          22  0.0000000E+00
           1          31          22  0.0000000E+00
           1          31          23  0.0000000E+00
           1          32          22  0.0000000E+00
           1          32          23  0.0000000E+00
           1          33          22  0.0000000E+00
           1          34          22  0.0000000E+00
           1          34          23  0.0000000E+00
           1          35          23  0.0000000E+00
           1          35          24  0.0000000E+00
           1          36          23  0.0000000E+00
           1          36          24  0.0000000E+00
           1          36          25  0.0000000E+00
           1          36          26  0.0000000E+00
           1          36          27  0.0000000E+00
           1          37          27  0.0000000E+00
           1          37          56  0.0000000E+00
           1          37          57  0.0000000E+00
           1          38          27  0.0000000E+00
           1          38          55  0.0000000E+00
           1          38          56  0.0000000E+00
           1          39          27  0.0000000E+00
           1          39          55  0.0000000E+00
           1          40          25  0.0000000E+00
           1          40          26  0.0000000E+00
           1          40          27  0.0000000E+00
           1          40          55  0.0000000E+00
           1          41          25  0.0000000E+00
           1          41          26  0.0000000E+00
           1          41          27  0.0000000E+00
           1          41          33  0.0000000E+00
           1          41          53  0.0000000E+00
           1          41          54  0.0000000E+00
           1          41          55  0.0000000E+00
           1          42          27  0.0000000E+00
           1          42          33  0.0000000E+00
           1          42          34  0.0000000E+00
           1          42          52  0.0000000E+00
           1          42          53  0.0000000E+00
           1          43          27  0.0000000E+00
           1          43          28  0.0000000E+00
           1          43          34  0.0000000E+00
           1          43          52  0.0000000E+00
           1          44          28  0.0000000E+00
           1          44          29  0.0000000E+00
           1          44          30  0.0000000E+00
           1          44          34  0.0000000E+00
           1          44          35  0.0000000E+00
           1          44          52  0.0000000E+00
           1          44          53  0.0000000E+00
           1          45          30  0.0000000E+00
           1          45          35  0.0000000E+00
           1          45          53  0.0000000E+00
           1          46          30  0.0000000E+00
           1          46          35  0.0000000E+00
           1          46          51  0.0000000E+00
           1          46          52  0.0000000E+00
           1          46          53  0.0000000E+00
           1          47          30  0.0000000E+00
           1          47          31  0.0000000E+00
           1          47          32  0.0000000E+00
           1          47          35  0.0000000E+00
           1          47          50  0.0000000E+00
           1          47          51  0.0000000E+00
           1          48          32  0.0000000E+00
           1          48          33  0.0000000E+00
           1          48          35  0.0000000E+00
           1          48          36  0.0000000E+00
           1          48          49  0.0000000E+00
           1          48          50  0.0000000E+00
           1          49          33  0.0000000E+00
           1          49          34  0.0000000E+00
           1          49          35  0.0000000E+00
           1          49          36  0.0000000E+00
           1          49          37  0.0000000E+00
           1          49          38  0.0000000E+00
           1          49          41  0.0000000E+00
           1          49          42  0.0000000E+00
           1          49          49  0.0000000E+00
           1          50          34  0.0000000E+00
           1          50          35  0.0000000E+00
           1          50          36  0.0000000E+00
           1          50          37  0.0000000E+00
           1          50          38  0.0000000E+00
           1          50          39  0.0000000E+00
           1          50          40  0.0000000E+00
           1          50          41  0.0000000E+00
           1          50          42  0.0000000E+00
           1          50          43  0.0000000E+00
           1          50          49  0.0000000E+00
           1          51          43  0.0000000E+00
           1          51          48  0.0000000E+00
           1          51          49  0.0000000E+00
           1          52          43  0.0000000E+00
           1          52          48  0.0000000E+00
           1          52          49  0.0000000E+00
           1          52          50  0.0000000E+00
           1          53          43  0.0000000E+00
           1          53          44  0.0000000E+00
           1          53          47  0.0000000E+00
           1          53          48  0.0000000E+00
           1          53          50  0.0000000E+00
           1          53          51  0.0000000E+00
           1          54          44  0.0000000E+00
           1          54          45  0.0000000E+00
           1          54          46  0.0000000E+00
           1          54          47  0.0000000E+00
           1          54          51  0.0000000E+00
           1          54          52  0.0000000E+00
           1          55          52  0.0000000E+00
           1          56          52  0.0000000E+00
           1          56          53  0.0000000E+00
           1          56          54  0.0000000E+00
           1          57          53  0.0000000E+00
           1          57          54  0.0000000E+00
           1          58          53  0.0000000E+00
           1          59          53  0.0000000E+00
           1          60          53  0.0000000E+00
           1          61          53  0.0000000E+00
           1          61          54  0.0000000E+00
           1          61          55  0.0000000E+00
           1          61          56  0.0000000E+00
           1          62          56  0.0000000E+00
           1          63          56  0.0000000E+00
           1          63          57  0.0000000E+00
           1          64          56  0.0000000E+00
           1          64          57  0.0000000E+00
           1          65          56  0.0000000E+00
           1          66          56  0.0000000E+00
           1          67          56  0.0000000E+00
           1          68          56  0.0000000E+00
           1          68          57  0.0000000E+00
           1          69          57  0.0000000E+00
           1          70          57  0.0000000E+00
           1          70          58  0.0000000E+00
           1          71          58  0.0000000E+00
           1          72          58  0.0000000E+00
           1          73          54  0.0000000E+00
           1          73          55  0.0000000E+00
           1          73          56  0.0000000E+00
           1          73          57  0.0000000E+00
           1          73          58  0.0000000E+00
           1          74          54  0.0000000E+00
           1          75          54  0.0000000E+00
           1          75          55  0.0000000E+00
           1          76          54  0.0000000E+00
           1          76          55  0.0000000E+00
           1          77          53  0.0000000E+00
           1          77          54  0.0000000E+00
           1          78          53  0.0000000E+00
           1          78          54  0.0000000E+00
           1          78          55  0.0000000E+00
           1          79          55  0.0000000E+00
           1          79          56  0.0000000E+00
           1          80          56  0.0000000E+00
           1          81          56  0.0000000E+00
           1          82          56  0.0000000E+00
           1          83          56  0.0000000E+00
           1          84          53  0.0000000E+00
           1          84          54  0.0000000E+00
           1          84          55  0.0000000E+00
           1          84          56  0.0000000E+00
           1          85          53  0.0000000E+00
           1          85          54  0.0000000E+00
           1          85          55  0.0000000E+00
           1          86          53  0.0000000E+00
           1          86          54  0.0000000E+00
           1          87          54  0.0000000E+00
           1          87          55  0.0000000E+00
           1          88          55  0.0000000E+00
           1          88          56  0.0000000E+00
           1          88          57  0.0000000E+00
           1          89          57  0.0000000E+00
           1          90          56  0.0000000E+00
           1          90          57  0.0000000E+00
           1          91          54  0.0000000E+00
           1          91          55  0.0000000E+00
           1          91          56  0.0000000E+00
           1          92          54  0.0000000E+00
           1          93          54  0.0000000E+00
           1          93          55  0.0000000E+00
           1          93          56  0.0000000E+00
           1          93          57  0.0000000E+00
           1          94          57  0.0000000E+00
           1          94          58  0.0000000E+00
           1          95          56  0.0000000E+00
           1          95          57  0.0000000E+00
           1          96          56  0.0000000E+00
           1          96          57  0.0000000E+00
           1          97          54  0.0000000E+00
           1          97          55  0.0000000E+00
           1          97          57  0.0000000E+00
           1          97          58  0.0000000E+00
           1          98          54  0.0000000E+00
           1          98          55  0.0000000E+00
           1          98          56  0.0000000E+00
           1          98          57  0.0000000E+00
           1          98          58  0.0000000E+00
           1          99          54  0.0000000E+00
           1          99          55  0.0000000E+00
           1         100          54  0.0000000E+00
           1         100          55  0.0000000E+00
           1         101          55  0.0000000E+00
           1         101          56  0.0000000E+00
           1         101          57  0.0000000E+00
           1         102          57  0.0000000E+00
           1         102          58  0.0000000E+00
           1         103          58  0.0000000E+00
           1         103          59  0.0000000E+00
           1         104          58  0.0000000E+00
 
 Day:        1000
 Layer, Row, Column, Flow Rate
           1          25          17  -146747.5    
           1          25          18  -337714.3    
           1          26          18  -142904.1    
           1          26          19  -141642.6    
           1          27          19  -82019.80    
           1          27          20  -62033.90    
           1          28          20  -52330.52    
           1          28          21  -104117.3    
           1          29          21  -22282.55    
           1          29          22  -99592.35    
           1          30          22  -46523.35    
           1          31          22  -7202.982    
           1          31          23  -59634.40    
           1          32          22  -8494.427    
           1          32          23  -34447.32    
           1          33          22  -16267.43    
           1          34          22  -10644.14    
           1          34          23  -17646.72    
           1          35          23  -652.1647    
           1          35          24   832.5888    
           1          36          23   1338.585    
           1          36          24   2420.524    
           1          36          25   2078.330    
           1          36          26   2350.073    
           1          36          27   578.7117    
           1          37          27   2430.589    
           1          37          56   168.3521    
           1          37          57   1434.110    
           1          38          27   2314.847    
           1          38          55   2949.279    
           1          38          56   2812.103    
           1          39          27   2264.524    
           1          39          55   2743.354    
           1          40          25   1494.586    
           1          40          26   2284.653    
           1          40          27   156.0005    
           1          40          55   2967.811    
           1          41          25   1232.907    
           1          41          26   2420.524    
           1          41          27   1474.457    
           1          41          33   1029.113    
           1          41          53   2868.052    
           1          41          54   3061.334    
           1          41          55   673.3688    
           1          42          27   2324.911    
           1          42          33   1574.420    
           1          42          34   865.1111    
           1          42          52   2637.361    
           1          42          53   342.9193    
           1          43          27   639.0990    
           1          43          28   2078.330    
           1          43          34   2160.728    
           1          43          52   2687.240    
           1          44          28   1112.133    
           1          44          29   2345.040    
           1          44          30   1237.940    
           1          44          34   779.0099    
           1          44          35   1775.323    
           1          44          52   1471.435    
           1          44          53   1552.489    
           1          45          30   2611.751    
           1          45          35   1955.725    
           1          45          53   2737.119    
           1          46          30   2138.717    
           1          46          35   2263.229    
           1          46          51   2069.986    
           1          46          52   3279.555    
           1          46          53   467.6172    
           1          47          30   1952.523    
           1          47          31   2078.330    
           1          47          32   2385.299    
           1          47          35   1844.915    
           1          47          50   2387.965    
           1          47          51   1047.463    
           1          48          32   624.0022    
           1          48          33   1716.006    
           1          48          35   1242.243    
           1          48          36   959.3560    
           1          48          49   754.4224    
           1          48          50   2531.368    
           1          49          33   2727.493    
           1          49          34   432.7503    
           1          49          35   1569.978    
           1          49          36   7731.905    
           1          49          37   2000.708    
           1          49          38   311.5857    
           1          49          41   657.5244    
           1          49          42   1077.452    
           1          49          49   3354.374    
           1          50          34   2621.816    
           1          50          35   900.7773    
           1          50          36   790.0209    
           1          50          37   2264.391    
           1          50          38   8070.530    
           1          50          39   3477.749    
           1          50          40   3683.720    
           1          50          41   2994.508    
           1          50          42   3834.238    
           1          50          43   459.4748    
           1          50          49   3154.857    
           1          51          43   3485.671    
           1          51          48   910.2949    
           1          51          49   2238.328    
           1          52          43   4079.820    
           1          52          48   475.3188    
           1          52          49   1042.582    
           1          52          50   3123.104    
           1          53          43   3842.160    
           1          53          44   578.3045    
           1          53          47   1299.205    
           1          53          48   4602.670    
           1          53          50   610.1681    
           1          53          51   656.0411    
           1          54          44   3287.622    
           1          54          45   3271.778    
           1          54          46   4087.741    
           1          54          47   3176.714    
           1          54          51   248.9110    
           1          54          52   419.9795    
           1          55          52   197.5548    
           1          56          52   1164.315    
           1          56          53  -38.35742    
           1          56          54  -761.1096    
           1          57          53  -244.5364    
           1          57          54   3215.786    
           1          58          53  -252.5658    
           1          59          53  -217.4107    
           1          60          53  -144.7595    
           1          61          53   630.1000    
           1          61          54  -69.03857    
           1          61          55   1828.163    
           1          61          56   1369.783    
           1          62          56  -2910.910    
           1          63          56  -149.8825    
           1          63          57   2123.163    
           1          64          56   290.4220    
           1          64          57   808.1718    
           1          65          56   243.6851    
           1          66          56   292.1136    
           1          67          56   214.2150    
           1          68          56   585.6417    
           1          68          57   1041.035    
           1          69          57   687.8880    
           1          70          57   1191.711    
           1          70          58   699.7913    
           1          71          58   457.8595    
           1          72          58   683.5224    
           1          73          54   395.3126    
           1          73          55   388.5756    
           1          73          56   606.1635    
           1          73          57   739.7286    
           1          73          58   3164.198    
           1          74          54   647.7258    
           1          75          54   1808.113    
           1          75          55   4520.283    
           1          76          54   589.1909    
           1          76          55   3698.413    
           1          77          53   8218.695    
           1          77          54   1561.552    
           1          78          53   3849.089    
           1          78          54   472.2560    
           1          78          55   4931.217    
           1          79          55   2712.169    
           1          79          56   4068.254    
           1          80          56   714.3966    
           1          81          56   584.5494    
           1          82          56   566.7402    
           1          83          56   787.5607    
           1          84          53   260.2587    
           1          84          54   972.5457    
           1          84          55   872.4735    
           1          84          56   2246.443    
           1          85          53   591.1823    
           1          85          54   591.1164    
           1          85          55   2794.356    
           1          86          53   6191.417    
           1          86          54   767.0782    
           1          87          54   1102.172    
           1          87          55   767.0782    
           1          88          55   832.1339    
           1          88          56   5835.274    
           1          88          57   599.6688    
           1          89          57   760.1295    
           1          90          56   3739.507    
           1          90          57   3191.594    
           1          91          54   5150.382    
           1          91          55   761.5649    
           1          91          56   5602.411    
           1          92          54   6273.604    
           1          93          54   2451.911    
           1          93          55   957.6707    
           1          93          56   770.7136    
           1          93          57   6383.187    
           1          94          57   2684.774    
           1          94          58   4260.024    
           1          95          56   2547.796    
           1          95          57   6410.583    
           1          96          56   2671.076    
           1          96          57   1264.240    
           1          97          54   5807.878    
           1          97          55   1044.444    
           1          97          57   1054.733    
           1          97          58   4780.542    
           1          98          54   6246.208    
           1          98          55   4588.771    
           1          98          56   906.3002    
           1          98          57   1358.147    
           1          98          58   1342.387    
           1          99          54   4520.283    
           1          99          55   2164.257    
           1         100          54   739.6826    
           1         100          55   962.2829    
           1         101          55   3342.270    
           1         101          56   6465.374    
           1         101          57   3492.946    
           1         102          57   3246.385    
           1         102          58   5917.461    
           1         103          58   6684.539    
           1         103          59   493.1217    
           1         104          58   4643.563    
 
 Day:        2000
 Layer, Row, Column, Flow Rate
           1          25          17  -119052.8    
           1          25          18  -291461.1    
           1          26          18  -114212.0    
           1          26          19  -134938.4    
           1          27          19  -67826.06    
           1          27          20  -64393.58    
           1          28          20  -43222.73    
           1          28          21  -117631.2    
           1          29          21  -17231.80    
           1          29          22  -128897.0    
           1          30          22  -57402.23    
           1          31          22  -5903.171    
           1          31          23  -102184.0    
           1          32          22  -6718.416    
           1          32          23  -66505.54    
           1          33          22  -16346.65    
           1          34          22  -7317.793    
           1          34          23  -38546.38    
           1          35          23  -6212.478    
           1          35          24  -42149.55    
           1          36          23   2213.693    
           1          36          24  -1630.039    
           1          36          25  -25601.18    
           1          36          26  -58805.12    
           1          36          27  -87878.83    
           1          37          27  -63431.39    
           1          37          56  -63002.04    
           1          37          57  -202486.3    
           1          38          27  -33254.76    
           1          38          55  -159829.8    
           1          38          56  -74680.29    
           1          39          27  -19444.80    
           1          39          55  -62917.46    
           1          40          25   2471.680    
           1          40          26   3778.258    
           1          40          27   257.9868    
           1          40          55  -37426.89    
           1          41          25   2038.928    
           1          41          26   4002.956    
           1          41          27   2438.391    
           1          41          33  -108098.1    
           1          41          53  -107377.1    
           1          41          54  -33852.46    
           1          41          55  -2403.818    
           1          42          27   3844.836    
           1          42          33  -17241.01    
           1          42          34  -61597.20    
           1          42          52  -22068.28    
           1          42          53   567.1381    
           1          43          27   1056.914    
           1          43          28   3437.050    
           1          43          34  -18096.05    
           1          43          52  -11995.37    
           1          44          28   1839.196    
           1          44          29   3878.124    
           1          44          30   2047.250    
           1          44          34  -827.4370    
           1          44          35  -28523.75    
           1          44          52  -16681.73    
           1          44          53   90.87886    
           1          45          30   4319.198    
           1          45          35  -2795.282    
           1          45          53   919.7654    
           1          46          30   3536.916    
           1          46          35  -630.2646    
           1          46          51  -7052.096    
           1          46          52   1339.971    
           1          46          53   773.3701    
           1          47          30   3228.996    
           1          47          31   3437.050    
           1          47          32   3944.702    
           1          47          35  -791.4824    
           1          47          50  -2978.484    
           1          47          51   1732.349    
           1          48          32   1031.947    
           1          48          33   2837.855    
           1          48          35  -93.34661    
           1          48          36   1586.634    
           1          48          49   1247.704    
           1          48          50   4186.510    
           1          49          33   4510.608    
           1          49          34   715.7053    
           1          49          35   2596.512    
           1          49          36   543.7645    
           1          49          37   277.8603    
           1          49          38   515.3170    
           1          49          41  -2424.517    
           1          49          42   1781.843    
           1          49          49   853.2776    
           1          50          34   4335.843    
           1          50          35   1489.666    
           1          50          36   1306.578    
           1          50          37   3744.969    
           1          50          38   790.4960    
           1          50          39   534.6425    
           1          50          40   428.4657    
           1          50          41   330.8281    
           1          50          42  -1762.295    
           1          50          43   759.9037    
           1          50          49   3719.917    
           1          51          43  -310.7148    
           1          51          48   1505.494    
           1          51          49   712.0292    
           1          52          43   132.1860    
           1          52          48   786.1074    
           1          52          49  -12.25818    
           1          52          50  -220.6542    
           1          53          43   773.0840    
           1          53          44   956.4306    
           1          53          47   451.7276    
           1          53          48   240.0231    
           1          53          50   96.91347    
           1          53          51   185.4126    
           1          54          44   5437.243    
           1          54          45   5411.039    
           1          54          46   964.0259    
           1          54          47   379.4590    
           1          54          51  -74.63925    
           1          54          52   118.4907    
           1          55          52  -165.8298    
           1          56          52   335.6171    
           1          56          53  -252.5526    
           1          56          54  -2642.282    
           1          57          53  -417.8420    
           1          57          54   951.9604    
           1          58          53  -487.3255    
           1          59          53  -496.9467    
           1          60          53  -639.6277    
           1          61          53  -237.5101    
           1          61          54  -326.9546    